<routes xmlns:xsi="http://www.w3.org/2001/XMLSchema-instance" xsi:noNamespaceSchemaLocation="http://sumo.dlr.de/xsd/routes_file.xsd">
		<person id="1#0" depart="326" >
				<personTrip from="533269774" to="479178953" modes="public" />
		</person>
		<person id="1#1" depart="3889" >
				<personTrip from="479178953" to="259196946#0" modes="public" />
		</person>
		<person id="1#2" depart="5727" >
				<personTrip from="259196946#0" to="43662107#0" modes="public" />
		</person>
		<person id="1#3" depart="11583" >
				<personTrip from="43662107#0" to="353046109#0" modes="public" />
		</person>
		<person id="1#4" depart="15181" >
				<personTrip from="353046109#0" to="164439325#0" modes="public" />
		</person>
		<person id="1#5" depart="18361" >
				<personTrip from="164439325#0" to="162562140#0" modes="public" />
		</person>
		<person id="1#6" depart="20125" >
				<personTrip from="162562140#0" to="93359226#0" modes="public" />
		</person>
		<person id="1#7" depart="21829" >
				<personTrip from="93359226#0" to="407698812#0" modes="public" />
		</person>
		<person id="1#8" depart="27597" >
				<personTrip from="407698812#0" to="162562140#0" modes="public" />
		</person>
		<person id="1#9" depart="32345" >
				<personTrip from="162562140#0" to="630262535#0" modes="public" />
		</person>
		<person id="1#10" depart="38736" >
				<personTrip from="630262535#0" to="162562140#0" modes="public" />
		</person>
		<person id="1#11" depart="43747" >
				<personTrip from="162562140#0" to="630262536" modes="public" />
		</person>
		<person id="1#12" depart="45176" >
				<personTrip from="630262536" to="482907800" modes="public" />
		</person>
		<person id="1#13" depart="48168" >
				<personTrip from="482907800" to="42299654#0" modes="public" />
		</person>
		<person id="1#14" depart="50647" >
				<personTrip from="42299654#0" to="482907800" modes="public" />
		</person>
		<person id="1#15" depart="54075" >
				<personTrip from="482907800" to="533269770#0" modes="public" />
		</person>
		<person id="1#16" depart="60661" >
				<personTrip from="533269770#0" to="533269774" modes="public" />
		</person>
		<person id="2#0" depart="211" >
				<personTrip from="162562779#0" to="162562140#0" modes="public" />
		</person>
		<person id="2#1" depart="4159" >
				<personTrip from="162562140#0" to="93359226#0" modes="public" />
		</person>
		<person id="2#2" depart="5388" >
				<personTrip from="93359226#0" to="42299170#0" modes="public" />
		</person>
		<person id="2#3" depart="10585" >
				<personTrip from="42299170#0" to="479037388#1" modes="public" />
		</person>
		<person id="2#4" depart="12257" >
				<personTrip from="479037388#1" to="425555630#2" modes="public" />
		</person>
		<person id="2#5" depart="17196" >
				<personTrip from="425555630#2" to="394662443" modes="public" />
		</person>
		<person id="2#6" depart="24141" >
				<personTrip from="394662443" to="393835202" modes="public" />
		</person>
		<person id="2#7" depart="29733" >
				<personTrip from="393835202" to="217840002#0" modes="public" />
		</person>
		<person id="2#8" depart="36618" >
				<personTrip from="217840002#0" to="683185824#0" modes="public" />
		</person>
		<person id="2#9" depart="37925" >
				<personTrip from="683185824#0" to="393854027#0" modes="public" />
		</person>
		<person id="2#10" depart="41143" >
				<personTrip from="393854027#0" to="575224401" modes="public" />
		</person>
		<person id="2#11" depart="43292" >
				<personTrip from="575224401" to="533269770#0" modes="public" />
		</person>
		<person id="2#12" depart="46772" >
				<personTrip from="533269770#0" to="162562140#0" modes="public" />
		</person>
		<person id="2#13" depart="50858" >
				<personTrip from="162562140#0" to="293181550#0" modes="public" />
		</person>
		<person id="2#14" depart="52595" >
				<personTrip from="293181550#0" to="227350281#0" modes="public" />
		</person>
		<person id="2#15" depart="54736" >
				<personTrip from="227350281#0" to="393764341#0" modes="public" />
		</person>
		<person id="2#16" depart="56584" >
				<personTrip from="393764341#0" to="479178957#0" modes="public" />
		</person>
		<person id="2#17" depart="59429" >
				<personTrip from="479178957#0" to="479178957#0" modes="public" />
		</person>
		<person id="2#18" depart="62047" >
				<personTrip from="479178957#0" to="162562779#0" modes="public" />
		</person>
		<person id="3#0" depart="171" >
				<personTrip from="533269774" to="408172599" modes="public" />
		</person>
		<person id="3#1" depart="3692" >
				<personTrip from="408172599" to="370817780" modes="public" />
		</person>
		<person id="3#2" depart="8398" >
				<personTrip from="370817780" to="479178953" modes="public" />
		</person>
		<person id="3#3" depart="12955" >
				<personTrip from="479178953" to="533269774" modes="public" />
		</person>
		<person id="3#4" depart="19954" >
				<personTrip from="533269774" to="370817780" modes="public" />
		</person>
		<person id="3#5" depart="20966" >
				<personTrip from="370817780" to="393854027#0" modes="public" />
		</person>
		<person id="3#6" depart="24610" >
				<personTrip from="393854027#0" to="93359226#0" modes="public" />
		</person>
		<person id="3#7" depart="26271" >
				<personTrip from="93359226#0" to="533269773" modes="public" />
		</person>
		<person id="3#8" depart="27792" >
				<personTrip from="533269773" to="582546059#0" modes="public" />
		</person>
		<person id="3#9" depart="33492" >
				<personTrip from="582546059#0" to="353178841#0" modes="public" />
		</person>
		<person id="3#10" depart="39644" >
				<personTrip from="353178841#0" to="379136812#0" modes="public" />
		</person>
		<person id="3#11" depart="42332" >
				<personTrip from="379136812#0" to="393764341#0" modes="public" />
		</person>
		<person id="3#12" depart="43963" >
				<personTrip from="393764341#0" to="43662107#0" modes="public" />
		</person>
		<person id="3#13" depart="48032" >
				<personTrip from="43662107#0" to="479178957#0" modes="public" />
		</person>
		<person id="3#14" depart="52613" >
				<personTrip from="479178957#0" to="479178957#0" modes="public" />
		</person>
		<person id="3#15" depart="58656" >
				<personTrip from="479178957#0" to="393835202" modes="public" />
		</person>
		<person id="3#16" depart="65235" >
				<personTrip from="393835202" to="533269774" modes="public" />
		</person>
		<person id="4#0" depart="232" >
				<personTrip from="162562779#0" to="393835202" modes="public" />
		</person>
		<person id="4#1" depart="5337" >
				<personTrip from="393835202" to="162562140#0" modes="public" />
		</person>
		<person id="4#2" depart="11909" >
				<personTrip from="162562140#0" to="425555630#2" modes="public" />
		</person>
		<person id="4#3" depart="13744" >
				<personTrip from="425555630#2" to="162562779#0" modes="public" />
		</person>
		<person id="4#4" depart="17377" >
				<personTrip from="162562779#0" to="393835202" modes="public" />
		</person>
		<person id="4#5" depart="23876" >
				<personTrip from="393835202" to="93359226#0" modes="public" />
		</person>
		<person id="4#6" depart="28588" >
				<personTrip from="93359226#0" to="482442757" modes="public" />
		</person>
		<person id="4#7" depart="30103" >
				<personTrip from="482442757" to="482907800" modes="public" />
		</person>
		<person id="4#8" depart="31683" >
				<personTrip from="482907800" to="533269775" modes="public" />
		</person>
		<person id="4#9" depart="34832" >
				<personTrip from="533269775" to="155291168" modes="public" />
		</person>
		<person id="4#10" depart="37298" >
				<personTrip from="155291168" to="155291168" modes="public" />
		</person>
		<person id="4#11" depart="38576" >
				<personTrip from="155291168" to="259196946#0" modes="public" />
		</person>
		<person id="4#12" depart="44668" >
				<personTrip from="259196946#0" to="162562140#0" modes="public" />
		</person>
		<person id="4#13" depart="51803" >
				<personTrip from="162562140#0" to="370817780" modes="public" />
		</person>
		<person id="4#14" depart="58040" >
				<personTrip from="370817780" to="370817780" modes="public" />
		</person>
		<person id="4#15" depart="61071" >
				<personTrip from="370817780" to="162562779#0" modes="public" />
		</person>
		<person id="5#0" depart="175" >
				<personTrip from="533269774" to="353178841#0" modes="public" />
		</person>
		<person id="5#1" depart="3506" >
				<personTrip from="353178841#0" to="394010856" modes="public" />
		</person>
		<person id="5#2" depart="7924" >
				<personTrip from="394010856" to="370817780" modes="public" />
		</person>
		<person id="5#3" depart="9599" >
				<personTrip from="370817780" to="293181550#0" modes="public" />
		</person>
		<person id="5#4" depart="13806" >
				<personTrip from="293181550#0" to="479178953" modes="public" />
		</person>
		<person id="5#5" depart="20100" >
				<personTrip from="479178953" to="738204219" modes="public" />
		</person>
		<person id="5#6" depart="24050" >
				<personTrip from="738204219" to="293181550#0" modes="public" />
		</person>
		<person id="5#7" depart="29883" >
				<personTrip from="293181550#0" to="353178841#0" modes="public" />
		</person>
		<person id="5#8" depart="36363" >
				<personTrip from="353178841#0" to="43662107#0" modes="public" />
		</person>
		<person id="5#9" depart="39038" >
				<personTrip from="43662107#0" to="394662443" modes="public" />
		</person>
		<person id="5#10" depart="43050" >
				<personTrip from="394662443" to="393764290#1" modes="public" />
		</person>
		<person id="5#11" depart="43998" >
				<personTrip from="393764290#1" to="394010856" modes="public" />
		</person>
		<person id="5#12" depart="47464" >
				<personTrip from="394010856" to="155291168" modes="public" />
		</person>
		<person id="5#13" depart="52628" >
				<personTrip from="155291168" to="394662443" modes="public" />
		</person>
		<person id="5#14" depart="59376" >
				<personTrip from="394662443" to="393854027#0" modes="public" />
		</person>
		<person id="5#15" depart="63855" >
				<personTrip from="393854027#0" to="533269774" modes="public" />
		</person>
		<person id="6#0" depart="340" >
				<personTrip from="533269774" to="227350281#0" modes="public" />
		</person>
		<person id="6#1" depart="7205" >
				<personTrip from="227350281#0" to="630262536" modes="public" />
		</person>
		<person id="6#2" depart="11800" >
				<personTrip from="630262536" to="42299654#0" modes="public" />
		</person>
		<person id="6#3" depart="16739" >
				<personTrip from="42299654#0" to="393854027#0" modes="public" />
		</person>
		<person id="6#4" depart="19027" >
				<personTrip from="393854027#0" to="479037390#0" modes="public" />
		</person>
		<person id="6#5" depart="22765" >
				<personTrip from="479037390#0" to="407698812#0" modes="public" />
		</person>
		<person id="6#6" depart="28212" >
				<personTrip from="407698812#0" to="393835202" modes="public" />
		</person>
		<person id="6#7" depart="34626" >
				<personTrip from="393835202" to="482907800" modes="public" />
		</person>
		<person id="6#8" depart="39213" >
				<personTrip from="482907800" to="303055947" modes="public" />
		</person>
		<person id="6#9" depart="41855" >
				<personTrip from="303055947" to="162562779#0" modes="public" />
		</person>
		<person id="6#10" depart="47236" >
				<personTrip from="162562779#0" to="630262536" modes="public" />
		</person>
		<person id="6#11" depart="48975" >
				<personTrip from="630262536" to="42299170#0" modes="public" />
		</person>
		<person id="6#12" depart="50946" >
				<personTrip from="42299170#0" to="379136812#0" modes="public" />
		</person>
		<person id="6#13" depart="55532" >
				<personTrip from="379136812#0" to="407698812#0" modes="public" />
		</person>
		<person id="6#14" depart="61289" >
				<personTrip from="407698812#0" to="533269774" modes="public" />
		</person>
		<person id="7#0" depart="390" >
				<personTrip from="533269774" to="393764290#1" modes="public" />
		</person>
		<person id="7#1" depart="4109" >
				<personTrip from="393764290#1" to="303055947" modes="public" />
		</person>
		<person id="7#2" depart="7589" >
				<personTrip from="303055947" to="683185824#0" modes="public" />
		</person>
		<person id="7#3" depart="8696" >
				<personTrip from="683185824#0" to="303055947" modes="public" />
		</person>
		<person id="7#4" depart="11552" >
				<personTrip from="303055947" to="393835202" modes="public" />
		</person>
		<person id="7#5" depart="12760" >
				<personTrip from="393835202" to="670024857" modes="public" />
		</person>
		<person id="7#6" depart="15340" >
				<personTrip from="670024857" to="394660927#1" modes="public" />
		</person>
		<person id="7#7" depart="17381" >
				<personTrip from="394660927#1" to="738219281" modes="public" />
		</person>
		<person id="7#8" depart="19770" >
				<personTrip from="738219281" to="93359226#0" modes="public" />
		</person>
		<person id="7#9" depart="26753" >
				<personTrip from="93359226#0" to="446729524" modes="public" />
		</person>
		<person id="7#10" depart="29614" >
				<personTrip from="446729524" to="42299170#0" modes="public" />
		</person>
		<person id="7#11" depart="35407" >
				<personTrip from="42299170#0" to="533269774" modes="public" />
		</person>
		<person id="7#12" depart="41077" >
				<personTrip from="533269774" to="446729524" modes="public" />
		</person>
		<person id="7#13" depart="46083" >
				<personTrip from="446729524" to="162562779#0" modes="public" />
		</person>
		<person id="7#14" depart="47012" >
				<personTrip from="162562779#0" to="511852937#0" modes="public" />
		</person>
		<person id="7#15" depart="51631" >
				<personTrip from="511852937#0" to="575224401" modes="public" />
		</person>
		<person id="7#16" depart="56486" >
				<personTrip from="575224401" to="393764290#1" modes="public" />
		</person>
		<person id="7#17" depart="57800" >
				<personTrip from="393764290#1" to="293181550#0" modes="public" />
		</person>
		<person id="7#18" depart="62082" >
				<personTrip from="293181550#0" to="533269774" modes="public" />
		</person>
		<person id="8#0" depart="113" >
				<personTrip from="533269774" to="393764306" modes="public" />
		</person>
		<person id="8#1" depart="2570" >
				<personTrip from="393764306" to="536208570" modes="public" />
		</person>
		<person id="8#2" depart="8209" >
				<personTrip from="536208570" to="582546058" modes="public" />
		</person>
		<person id="8#3" depart="13651" >
				<personTrip from="582546058" to="393835202" modes="public" />
		</person>
		<person id="8#4" depart="17731" >
				<personTrip from="393835202" to="393764341#0" modes="public" />
		</person>
		<person id="8#5" depart="22626" >
				<personTrip from="393764341#0" to="479178957#0" modes="public" />
		</person>
		<person id="8#6" depart="24383" >
				<personTrip from="479178957#0" to="393764341#0" modes="public" />
		</person>
		<person id="8#7" depart="31127" >
				<personTrip from="393764341#0" to="479178957#0" modes="public" />
		</person>
		<person id="8#8" depart="38012" >
				<personTrip from="479178957#0" to="479178953" modes="public" />
		</person>
		<person id="8#9" depart="41758" >
				<personTrip from="479178953" to="393764306" modes="public" />
		</person>
		<person id="8#10" depart="48921" >
				<personTrip from="393764306" to="533269770#0" modes="public" />
		</person>
		<person id="8#11" depart="54818" >
				<personTrip from="533269770#0" to="407698812#0" modes="public" />
		</person>
		<person id="8#12" depart="56116" >
				<personTrip from="407698812#0" to="479037390#0" modes="public" />
		</person>
		<person id="8#13" depart="57311" >
				<personTrip from="479037390#0" to="479178957#0" modes="public" />
		</person>
		<person id="8#14" depart="59968" >
				<personTrip from="479178957#0" to="670024857" modes="public" />
		</person>
		<person id="8#15" depart="61382" >
				<personTrip from="670024857" to="533269774" modes="public" />
		</person>
		<person id="9#0" depart="275" >
				<personTrip from="533269774" to="479178953" modes="public" />
		</person>
		<person id="9#1" depart="5158" >
				<personTrip from="479178953" to="393835202" modes="public" />
		</person>
		<person id="9#2" depart="9782" >
				<personTrip from="393835202" to="393764290#1" modes="public" />
		</person>
		<person id="9#3" depart="15432" >
				<personTrip from="393764290#1" to="533269774" modes="public" />
		</person>
		<person id="9#4" depart="17208" >
				<personTrip from="533269774" to="164439325#0" modes="public" />
		</person>
		<person id="9#5" depart="18201" >
				<personTrip from="164439325#0" to="393764306" modes="public" />
		</person>
		<person id="9#6" depart="23019" >
				<personTrip from="393764306" to="511852937#0" modes="public" />
		</person>
		<person id="9#7" depart="29074" >
				<personTrip from="511852937#0" to="582546059#0" modes="public" />
		</person>
		<person id="9#8" depart="30801" >
				<personTrip from="582546059#0" to="43662107#0" modes="public" />
		</person>
		<person id="9#9" depart="35537" >
				<personTrip from="43662107#0" to="533269770#0" modes="public" />
		</person>
		<person id="9#10" depart="41623" >
				<personTrip from="533269770#0" to="42299654#0" modes="public" />
		</person>
		<person id="9#11" depart="47856" >
				<personTrip from="42299654#0" to="162562140#0" modes="public" />
		</person>
		<person id="9#12" depart="52490" >
				<personTrip from="162562140#0" to="630262536" modes="public" />
		</person>
		<person id="9#13" depart="56543" >
				<personTrip from="630262536" to="738204219" modes="public" />
		</person>
		<person id="9#14" depart="57985" >
				<personTrip from="738204219" to="217840002#0" modes="public" />
		</person>
		<person id="9#15" depart="61653" >
				<personTrip from="217840002#0" to="533269774" modes="public" />
		</person>
		<person id="10#0" depart="333" >
				<personTrip from="162562779#0" to="394010856" modes="public" />
		</person>
		<person id="10#1" depart="7334" >
				<personTrip from="394010856" to="479037388#1" modes="public" />
		</person>
		<person id="10#2" depart="8629" >
				<personTrip from="479037388#1" to="683185824#0" modes="public" />
		</person>
		<person id="10#3" depart="15760" >
				<personTrip from="683185824#0" to="93359226#0" modes="public" />
		</person>
		<person id="10#4" depart="18845" >
				<personTrip from="93359226#0" to="93359226#0" modes="public" />
		</person>
		<person id="10#5" depart="25097" >
				<personTrip from="93359226#0" to="533269775" modes="public" />
		</person>
		<person id="10#6" depart="26193" >
				<personTrip from="533269775" to="293181550#0" modes="public" />
		</person>
		<person id="10#7" depart="32981" >
				<personTrip from="293181550#0" to="582546059#0" modes="public" />
		</person>
		<person id="10#8" depart="37809" >
				<personTrip from="582546059#0" to="738219281" modes="public" />
		</person>
		<person id="10#9" depart="39800" >
				<personTrip from="738219281" to="533269775" modes="public" />
		</person>
		<person id="10#10" depart="43294" >
				<personTrip from="533269775" to="738204219" modes="public" />
		</person>
		<person id="10#11" depart="46598" >
				<personTrip from="738204219" to="670024857" modes="public" />
		</person>
		<person id="10#12" depart="50355" >
				<personTrip from="670024857" to="407698812#0" modes="public" />
		</person>
		<person id="10#13" depart="53862" >
				<personTrip from="407698812#0" to="425555630#2" modes="public" />
		</person>
		<person id="10#14" depart="60176" >
				<personTrip from="425555630#2" to="162562779#0" modes="public" />
		</person>
		<person id="11#0" depart="334" >
				<personTrip from="162562779#0" to="683185817" modes="public" />
		</person>
		<person id="11#1" depart="4560" >
				<personTrip from="683185817" to="479037388#1" modes="public" />
		</person>
		<person id="11#2" depart="5988" >
				<personTrip from="479037388#1" to="536208570" modes="public" />
		</person>
		<person id="11#3" depart="7189" >
				<personTrip from="536208570" to="408172599" modes="public" />
		</person>
		<person id="11#4" depart="13074" >
				<personTrip from="408172599" to="217840002#0" modes="public" />
		</person>
		<person id="11#5" depart="16480" >
				<personTrip from="217840002#0" to="227350281#0" modes="public" />
		</person>
		<person id="11#6" depart="22942" >
				<personTrip from="227350281#0" to="93359226#0" modes="public" />
		</person>
		<person id="11#7" depart="29904" >
				<personTrip from="93359226#0" to="482907800" modes="public" />
		</person>
		<person id="11#8" depart="33181" >
				<personTrip from="482907800" to="738204219" modes="public" />
		</person>
		<person id="11#9" depart="39006" >
				<personTrip from="738204219" to="394660927#1" modes="public" />
		</person>
		<person id="11#10" depart="45987" >
				<personTrip from="394660927#1" to="164439325#0" modes="public" />
		</person>
		<person id="11#11" depart="50876" >
				<personTrip from="164439325#0" to="353046109#0" modes="public" />
		</person>
		<person id="11#12" depart="52943" >
				<personTrip from="353046109#0" to="217840002#0" modes="public" />
		</person>
		<person id="11#13" depart="55777" >
				<personTrip from="217840002#0" to="533269775" modes="public" />
		</person>
		<person id="11#14" depart="57045" >
				<personTrip from="533269775" to="393764290#1" modes="public" />
		</person>
		<person id="11#15" depart="62827" >
				<personTrip from="393764290#1" to="162562779#0" modes="public" />
		</person>
		<person id="12#0" depart="383" >
				<personTrip from="533269774" to="479178957#0" modes="public" />
		</person>
		<person id="12#1" depart="3686" >
				<personTrip from="479178957#0" to="394662440" modes="public" />
		</person>
		<person id="12#2" depart="5990" >
				<personTrip from="394662440" to="738204219" modes="public" />
		</person>
		<person id="12#3" depart="10559" >
				<personTrip from="738204219" to="293181550#0" modes="public" />
		</person>
		<person id="12#4" depart="16003" >
				<personTrip from="293181550#0" to="393764312" modes="public" />
		</person>
		<person id="12#5" depart="21990" >
				<personTrip from="393764312" to="533269774" modes="public" />
		</person>
		<person id="12#6" depart="26873" >
				<personTrip from="533269774" to="217840002#0" modes="public" />
		</person>
		<person id="12#7" depart="30013" >
				<personTrip from="217840002#0" to="482907800" modes="public" />
		</person>
		<person id="12#8" depart="31195" >
				<personTrip from="482907800" to="353046109#0" modes="public" />
		</person>
		<person id="12#9" depart="33728" >
				<personTrip from="353046109#0" to="162562779#0" modes="public" />
		</person>
		<person id="12#10" depart="39800" >
				<personTrip from="162562779#0" to="582546059#0" modes="public" />
		</person>
		<person id="12#11" depart="44184" >
				<personTrip from="582546059#0" to="408172599" modes="public" />
		</person>
		<person id="12#12" depart="46280" >
				<personTrip from="408172599" to="43662107#0" modes="public" />
		</person>
		<person id="12#13" depart="50944" >
				<personTrip from="43662107#0" to="379136812#0" modes="public" />
		</person>
		<person id="12#14" depart="57043" >
				<personTrip from="379136812#0" to="630262535#0" modes="public" />
		</person>
		<person id="12#15" depart="59788" >
				<personTrip from="630262535#0" to="370817780" modes="public" />
		</person>
		<person id="12#16" depart="64082" >
				<personTrip from="370817780" to="533269774" modes="public" />
		</person>
		<person id="13#0" depart="190" >
				<personTrip from="162562779#0" to="223812322" modes="public" />
		</person>
		<person id="13#1" depart="6584" >
				<personTrip from="223812322" to="630262536" modes="public" />
		</person>
		<person id="13#2" depart="9589" >
				<personTrip from="630262536" to="479178957#0" modes="public" />
		</person>
		<person id="13#3" depart="10748" >
				<personTrip from="479178957#0" to="259196946#0" modes="public" />
		</person>
		<person id="13#4" depart="14541" >
				<personTrip from="259196946#0" to="393835202" modes="public" />
		</person>
		<person id="13#5" depart="17568" >
				<personTrip from="393835202" to="479178957#0" modes="public" />
		</person>
		<person id="13#6" depart="23541" >
				<personTrip from="479178957#0" to="446729524" modes="public" />
		</person>
		<person id="13#7" depart="27349" >
				<personTrip from="446729524" to="43662107#0" modes="public" />
		</person>
		<person id="13#8" depart="34278" >
				<personTrip from="43662107#0" to="533269770#0" modes="public" />
		</person>
		<person id="13#9" depart="36770" >
				<personTrip from="533269770#0" to="533269775" modes="public" />
		</person>
		<person id="13#10" depart="41925" >
				<personTrip from="533269775" to="582546059#0" modes="public" />
		</person>
		<person id="13#11" depart="43982" >
				<personTrip from="582546059#0" to="479037390#0" modes="public" />
		</person>
		<person id="13#12" depart="45624" >
				<personTrip from="479037390#0" to="394660927#1" modes="public" />
		</person>
		<person id="13#13" depart="48326" >
				<personTrip from="394660927#1" to="227350281#0" modes="public" />
		</person>
		<person id="13#14" depart="55512" >
				<personTrip from="227350281#0" to="582546058" modes="public" />
		</person>
		<person id="13#15" depart="61571" >
				<personTrip from="582546058" to="162562779#0" modes="public" />
		</person>
		<person id="14#0" depart="172" >
				<personTrip from="575224401" to="482442765#0" modes="public" />
		</person>
		<person id="14#1" depart="3813" >
				<personTrip from="482442765#0" to="162562779#0" modes="public" />
		</person>
		<person id="14#2" depart="5717" >
				<personTrip from="162562779#0" to="93359226#0" modes="public" />
		</person>
		<person id="14#3" depart="7492" >
				<personTrip from="93359226#0" to="670024857" modes="public" />
		</person>
		<person id="14#4" depart="10436" >
				<personTrip from="670024857" to="393764312" modes="public" />
		</person>
		<person id="14#5" depart="17134" >
				<personTrip from="393764312" to="407698812#0" modes="public" />
		</person>
		<person id="14#6" depart="23286" >
				<personTrip from="407698812#0" to="393764312" modes="public" />
		</person>
		<person id="14#7" depart="27405" >
				<personTrip from="393764312" to="393764312" modes="public" />
		</person>
		<person id="14#8" depart="31450" >
				<personTrip from="393764312" to="482442757" modes="public" />
		</person>
		<person id="14#9" depart="36687" >
				<personTrip from="482442757" to="479178957#0" modes="public" />
		</person>
		<person id="14#10" depart="37789" >
				<personTrip from="479178957#0" to="408172599" modes="public" />
		</person>
		<person id="14#11" depart="41338" >
				<personTrip from="408172599" to="407698812#0" modes="public" />
		</person>
		<person id="14#12" depart="47533" >
				<personTrip from="407698812#0" to="394662440" modes="public" />
		</person>
		<person id="14#13" depart="54626" >
				<personTrip from="394662440" to="446729524" modes="public" />
		</person>
		<person id="14#14" depart="56501" >
				<personTrip from="446729524" to="393764312" modes="public" />
		</person>
		<person id="14#15" depart="60664" >
				<personTrip from="393764312" to="575224401" modes="public" />
		</person>
		<person id="15#0" depart="274" >
				<personTrip from="533269774" to="223812322" modes="public" />
		</person>
		<person id="15#1" depart="5925" >
				<personTrip from="223812322" to="479178953" modes="public" />
		</person>
		<person id="15#2" depart="7542" >
				<personTrip from="479178953" to="353178841#0" modes="public" />
		</person>
		<person id="15#3" depart="12404" >
				<personTrip from="353178841#0" to="379136812#0" modes="public" />
		</person>
		<person id="15#4" depart="17188" >
				<personTrip from="379136812#0" to="630262536" modes="public" />
		</person>
		<person id="15#5" depart="22499" >
				<personTrip from="630262536" to="630262536" modes="public" />
		</person>
		<person id="15#6" depart="28703" >
				<personTrip from="630262536" to="164439325#0" modes="public" />
		</person>
		<person id="15#7" depart="31217" >
				<personTrip from="164439325#0" to="164439325#0" modes="public" />
		</person>
		<person id="15#8" depart="34319" >
				<personTrip from="164439325#0" to="43662107#0" modes="public" />
		</person>
		<person id="15#9" depart="38286" >
				<personTrip from="43662107#0" to="479178953" modes="public" />
		</person>
		<person id="15#10" depart="42290" >
				<personTrip from="479178953" to="303055947" modes="public" />
		</person>
		<person id="15#11" depart="47918" >
				<personTrip from="303055947" to="670024857" modes="public" />
		</person>
		<person id="15#12" depart="48819" >
				<personTrip from="670024857" to="393854027#0" modes="public" />
		</person>
		<person id="15#13" depart="53992" >
				<personTrip from="393854027#0" to="43662107#0" modes="public" />
		</person>
		<person id="15#14" depart="58095" >
				<personTrip from="43662107#0" to="479178953" modes="public" />
		</person>
		<person id="15#15" depart="60477" >
				<personTrip from="479178953" to="533269774" modes="public" />
		</person>
		<person id="16#0" depart="372" >
				<personTrip from="533269774" to="43662107#0" modes="public" />
		</person>
		<person id="16#1" depart="1668" >
				<personTrip from="43662107#0" to="408172599" modes="public" />
		</person>
		<person id="16#2" depart="7622" >
				<personTrip from="408172599" to="533269773" modes="public" />
		</person>
		<person id="16#3" depart="13651" >
				<personTrip from="533269773" to="630262535#0" modes="public" />
		</person>
		<person id="16#4" depart="17476" >
				<personTrip from="630262535#0" to="393835202" modes="public" />
		</person>
		<person id="16#5" depart="22047" >
				<personTrip from="393835202" to="293181550#0" modes="public" />
		</person>
		<person id="16#6" depart="28106" >
				<personTrip from="293181550#0" to="370817780" modes="public" />
		</person>
		<person id="16#7" depart="31078" >
				<personTrip from="370817780" to="393854027#0" modes="public" />
		</person>
		<person id="16#8" depart="33552" >
				<personTrip from="393854027#0" to="393764290#1" modes="public" />
		</person>