<routes xmlns:xsi="http://www.w3.org/2001/XMLSchema-instance" xsi:noNamespaceSchemaLocation="http://sumo.dlr.de/xsd/routes_file.xsd">
		<person id="1#0" depart="311" >
				<personTrip from="533269774" to="393835202" modes="public" />
		</person>
		<person id="1#1" depart="3214" >
				<personTrip from="393835202" to="533269775" modes="public" />
		</person>
		<person id="1#2" depart="6390" >
				<personTrip from="533269775" to="162562779#0" modes="public" />
		</person>
		<person id="1#3" depart="7364" >
				<personTrip from="162562779#0" to="353178841#0" modes="public" />
		</person>
		<person id="1#4" depart="12703" >
				<personTrip from="353178841#0" to="393764290#1" modes="public" />
		</person>
		<person id="1#5" depart="19702" >
				<personTrip from="393764290#1" to="394662440" modes="public" />
		</person>
		<person id="1#6" depart="24864" >
				<personTrip from="394662440" to="482442757" modes="public" />
		</person>
		<person id="1#7" depart="25838" >
				<personTrip from="482442757" to="393835202" modes="public" />
		</person>
		<person id="1#8" depart="28455" >
				<personTrip from="393835202" to="394660927#1" modes="public" />
		</person>
		<person id="1#9" depart="33639" >
				<personTrip from="394660927#1" to="93359226#0" modes="public" />
		</person>
		<person id="1#10" depart="36065" >
				<personTrip from="93359226#0" to="408172599" modes="public" />
		</person>
		<person id="1#11" depart="40088" >
				<personTrip from="408172599" to="227350281#0" modes="public" />
		</person>
		<person id="1#12" depart="42649" >
				<personTrip from="227350281#0" to="42299654#0" modes="public" />
		</person>
		<person id="1#13" depart="44690" >
				<personTrip from="42299654#0" to="533269775" modes="public" />
		</person>
		<person id="1#14" depart="48715" >
				<personTrip from="533269775" to="259196946#0" modes="public" />
		</person>
		<person id="1#15" depart="51244" >
				<personTrip from="259196946#0" to="630262535#0" modes="public" />
		</person>
		<person id="1#16" depart="56159" >
				<personTrip from="630262535#0" to="293181550#0" modes="public" />
		</person>
		<person id="1#17" depart="59438" >
				<personTrip from="293181550#0" to="42299170#0" modes="public" />
		</person>
		<person id="1#18" depart="64161" >
				<personTrip from="42299170#0" to="533269774" modes="public" />
		</person>
		<person id="2#0" depart="291" >
				<personTrip from="162562779#0" to="407698812#0" modes="public" />
		</person>
		<person id="2#1" depart="1474" >
				<personTrip from="407698812#0" to="425555630#2" modes="public" />
		</person>
		<person id="2#2" depart="5753" >
				<personTrip from="425555630#2" to="353178841#0" modes="public" />
		</person>
		<person id="2#3" depart="11559" >
				<personTrip from="353178841#0" to="670024857" modes="public" />
		</person>
		<person id="2#4" depart="16476" >
				<personTrip from="670024857" to="683185824#0" modes="public" />
		</person>
		<person id="2#5" depart="23651" >
				<personTrip from="683185824#0" to="479037390#0" modes="public" />
		</person>
		<person id="2#6" depart="28323" >
				<personTrip from="479037390#0" to="259196946#0" modes="public" />
		</person>
		<person id="2#7" depart="29393" >
				<personTrip from="259196946#0" to="670024857" modes="public" />
		</person>
		<person id="2#8" depart="32084" >
				<personTrip from="670024857" to="630262536" modes="public" />
		</person>
		<person id="2#9" depart="36479" >
				<personTrip from="630262536" to="353178841#0" modes="public" />
		</person>
		<person id="2#10" depart="41011" >
				<personTrip from="353178841#0" to="533269774" modes="public" />
		</person>
		<person id="2#11" depart="43994" >
				<personTrip from="533269774" to="630262536" modes="public" />
		</person>
		<person id="2#12" depart="50838" >
				<personTrip from="630262536" to="670024857" modes="public" />
		</person>
		<person id="2#13" depart="55251" >
				<personTrip from="670024857" to="155291168" modes="public" />
		</person>
		<person id="2#14" depart="57720" >
				<personTrip from="155291168" to="42299654#0" modes="public" />
		</person>
		<person id="2#15" depart="64563" >
				<personTrip from="42299654#0" to="162562779#0" modes="public" />
		</person>
		<person id="3#0" depart="241" >
				<personTrip from="533269774" to="479178957#0" modes="public" />
		</person>
		<person id="3#1" depart="3051" >
				<personTrip from="479178957#0" to="536208570" modes="public" />
		</person>
		<person id="3#2" depart="8431" >
				<personTrip from="536208570" to="511852937#0" modes="public" />
		</person>
		<person id="3#3" depart="14949" >
				<personTrip from="511852937#0" to="536208570" modes="public" />
		</person>
		<person id="3#4" depart="20834" >
				<personTrip from="536208570" to="670024857" modes="public" />
		</person>
		<person id="3#5" depart="24424" >
				<personTrip from="670024857" to="630262535#0" modes="public" />
		</person>
		<person id="3#6" depart="29623" >
				<personTrip from="630262535#0" to="533269770#0" modes="public" />
		</person>
		<person id="3#7" depart="31164" >
				<personTrip from="533269770#0" to="162562140#0" modes="public" />
		</person>
		<person id="3#8" depart="34990" >
				<personTrip from="162562140#0" to="479037390#0" modes="public" />
		</person>
		<person id="3#9" depart="39309" >
				<personTrip from="479037390#0" to="670024857" modes="public" />
		</person>
		<person id="3#10" depart="44861" >
				<personTrip from="670024857" to="43662107#0" modes="public" />
		</person>
		<person id="3#11" depart="49076" >
				<personTrip from="43662107#0" to="408172599" modes="public" />
		</person>
		<person id="3#12" depart="51280" >
				<personTrip from="408172599" to="479178957#0" modes="public" />
		</person>
		<person id="3#13" depart="54048" >
				<personTrip from="479178957#0" to="393835202" modes="public" />
		</person>
		<person id="3#14" depart="58256" >
				<personTrip from="393835202" to="394660927#1" modes="public" />
		</person>
		<person id="3#15" depart="61237" >
				<personTrip from="394660927#1" to="533269774" modes="public" />
		</person>
		<person id="4#0" depart="198" >
				<personTrip from="533269774" to="394662443" modes="public" />
		</person>
		<person id="4#1" depart="5282" >
				<personTrip from="394662443" to="536208570" modes="public" />
		</person>
		<person id="4#2" depart="8914" >
				<personTrip from="536208570" to="393764290#1" modes="public" />
		</person>
		<person id="4#3" depart="9960" >
				<personTrip from="393764290#1" to="394662443" modes="public" />
		</person>
		<person id="4#4" depart="13562" >
				<personTrip from="394662443" to="630262535#0" modes="public" />
		</person>
		<person id="4#5" depart="16270" >
				<personTrip from="630262535#0" to="479178957#0" modes="public" />
		</person>
		<person id="4#6" depart="21264" >
				<personTrip from="479178957#0" to="482907800" modes="public" />
		</person>
		<person id="4#7" depart="26186" >
				<personTrip from="482907800" to="479178953" modes="public" />
		</person>
		<person id="4#8" depart="28068" >
				<personTrip from="479178953" to="582546058" modes="public" />
		</person>
		<person id="4#9" depart="33519" >
				<personTrip from="582546058" to="42299170#0" modes="public" />
		</person>
		<person id="4#10" depart="34755" >
				<personTrip from="42299170#0" to="393835202" modes="public" />
		</person>
		<person id="4#11" depart="37211" >
				<personTrip from="393835202" to="670024857" modes="public" />
		</person>
		<person id="4#12" depart="44373" >
				<personTrip from="670024857" to="42299170#0" modes="public" />
		</person>
		<person id="4#13" depart="47952" >
				<personTrip from="42299170#0" to="394662440" modes="public" />
		</person>
		<person id="4#14" depart="50481" >
				<personTrip from="394662440" to="482442765#0" modes="public" />
		</person>
		<person id="4#15" depart="52524" >
				<personTrip from="482442765#0" to="738219281" modes="public" />
		</person>
		<person id="4#16" depart="54191" >
				<personTrip from="738219281" to="479178957#0" modes="public" />
		</person>
		<person id="4#17" depart="60177" >
				<personTrip from="479178957#0" to="533269774" modes="public" />
		</person>
		<person id="5#0" depart="367" >
				<personTrip from="162562779#0" to="164439325#0" modes="public" />
		</person>
		<person id="5#1" depart="2645" >
				<personTrip from="164439325#0" to="303055947" modes="public" />
		</person>
		<person id="5#2" depart="6774" >
				<personTrip from="303055947" to="227350281#0" modes="public" />
		</person>
		<person id="5#3" depart="9964" >
				<personTrip from="227350281#0" to="394662443" modes="public" />
		</person>
		<person id="5#4" depart="13560" >
				<personTrip from="394662443" to="42299170#0" modes="public" />
		</person>
		<person id="5#5" depart="15681" >
				<personTrip from="42299170#0" to="293181550#0" modes="public" />
		</person>
		<person id="5#6" depart="17061" >
				<personTrip from="293181550#0" to="42299170#0" modes="public" />
		</person>
		<person id="5#7" depart="20846" >
				<personTrip from="42299170#0" to="164439325#0" modes="public" />
		</person>
		<person id="5#8" depart="25424" >
				<personTrip from="164439325#0" to="393764290#1" modes="public" />
		</person>
		<person id="5#9" depart="28669" >
				<personTrip from="393764290#1" to="293181550#0" modes="public" />
		</person>
		<person id="5#10" depart="31755" >
				<personTrip from="293181550#0" to="482907800" modes="public" />
		</person>
		<person id="5#11" depart="37674" >
				<personTrip from="482907800" to="738204219" modes="public" />
		</person>
		<person id="5#12" depart="42611" >
				<personTrip from="738204219" to="155291168" modes="public" />
		</person>
		<person id="5#13" depart="43747" >
				<personTrip from="155291168" to="393764341#0" modes="public" />
		</person>
		<person id="5#14" depart="46974" >
				<personTrip from="393764341#0" to="393764290#1" modes="public" />
		</person>
		<person id="5#15" depart="49772" >
				<personTrip from="393764290#1" to="393835202" modes="public" />
		</person>
		<person id="5#16" depart="56284" >
				<personTrip from="393835202" to="670024857" modes="public" />
		</person>
		<person id="5#17" depart="57502" >
				<personTrip from="670024857" to="511852937#0" modes="public" />
		</person>
		<person id="5#18" depart="64317" >
				<personTrip from="511852937#0" to="162562779#0" modes="public" />
		</person>
		<person id="6#0" depart="287" >
				<personTrip from="533269774" to="407698812#0" modes="public" />
		</person>
		<person id="6#1" depart="4290" >
				<personTrip from="407698812#0" to="162562140#0" modes="public" />
		</person>
		<person id="6#2" depart="7365" >
				<personTrip from="162562140#0" to="582546059#0" modes="public" />
		</person>
		<person id="6#3" depart="8514" >
				<personTrip from="582546059#0" to="738219281" modes="public" />
		</person>
		<person id="6#4" depart="11240" >
				<personTrip from="738219281" to="738219281" modes="public" />
		</person>
		<person id="6#5" depart="17004" >
				<personTrip from="738219281" to="575224401" modes="public" />
		</person>
		<person id="6#6" depart="19577" >
				<personTrip from="575224401" to="533269775" modes="public" />
		</person>
		<person id="6#7" depart="25892" >
				<personTrip from="533269775" to="155291168" modes="public" />
		</person>
		<person id="6#8" depart="31948" >
				<personTrip from="155291168" to="42299170#0" modes="public" />
		</person>
		<person id="6#9" depart="37336" >
				<personTrip from="42299170#0" to="670024857" modes="public" />
		</person>
		<person id="6#10" depart="40428" >
				<personTrip from="670024857" to="293181550#0" modes="public" />
		</person>
		<person id="6#11" depart="44116" >
				<personTrip from="293181550#0" to="42299170#0" modes="public" />
		</person>
		<person id="6#12" depart="48074" >
				<personTrip from="42299170#0" to="93359226#0" modes="public" />
		</person>
		<person id="6#13" depart="51233" >
				<personTrip from="93359226#0" to="162562140#0" modes="public" />
		</person>
		<person id="6#14" depart="57012" >
				<personTrip from="162562140#0" to="259196946#0" modes="public" />
		</person>
		<person id="6#15" depart="59744" >
				<personTrip from="259196946#0" to="582546059#0" modes="public" />
		</person>
		<person id="6#16" depart="61481" >
				<personTrip from="582546059#0" to="533269774" modes="public" />
		</person>
		<person id="7#0" depart="168" >
				<personTrip from="533269774" to="670024857" modes="public" />
		</person>
		<person id="7#1" depart="6557" >
				<personTrip from="670024857" to="42299170#0" modes="public" />
		</person>
		<person id="7#2" depart="9719" >
				<personTrip from="42299170#0" to="533269775" modes="public" />
		</person>
		<person id="7#3" depart="13756" >
				<personTrip from="533269775" to="630262535#0" modes="public" />
		</person>
		<person id="7#4" depart="18589" >
				<personTrip from="630262535#0" to="479178957#0" modes="public" />
		</person>
		<person id="7#5" depart="22391" >
				<personTrip from="479178957#0" to="223812322" modes="public" />
		</person>
		<person id="7#6" depart="26735" >
				<personTrip from="223812322" to="394660927#1" modes="public" />
		</person>
		<person id="7#7" depart="30967" >
				<personTrip from="394660927#1" to="533269774" modes="public" />
		</person>
		<person id="7#8" depart="37316" >
				<personTrip from="533269774" to="162562140#0" modes="public" />
		</person>
		<person id="7#9" depart="44024" >
				<personTrip from="162562140#0" to="407698812#0" modes="public" />
		</person>
		<person id="7#10" depart="47270" >
				<personTrip from="407698812#0" to="533269775" modes="public" />
		</person>
		<person id="7#11" depart="50352" >
				<personTrip from="533269775" to="42299654#0" modes="public" />
		</person>
		<person id="7#12" depart="55823" >
				<personTrip from="42299654#0" to="393854027#0" modes="public" />
		</person>
		<person id="7#13" depart="57886" >
				<personTrip from="393854027#0" to="370817780" modes="public" />
		</person>
		<person id="7#14" depart="64709" >
				<personTrip from="370817780" to="533269774" modes="public" />
		</person>
		<person id="8#0" depart="255" >
				<personTrip from="533269774" to="393764312" modes="public" />
		</person>
		<person id="8#1" depart="6634" >
				<personTrip from="393764312" to="446729524" modes="public" />
		</person>
		<person id="8#2" depart="11750" >
				<personTrip from="446729524" to="164439325#0" modes="public" />
		</person>
		<person id="8#3" depart="18323" >
				<personTrip from="164439325#0" to="303055947" modes="public" />
		</person>
		<person id="8#4" depart="22169" >
				<personTrip from="303055947" to="162562140#0" modes="public" />
		</person>
		<person id="8#5" depart="23272" >
				<personTrip from="162562140#0" to="670024857" modes="public" />
		</person>
		<person id="8#6" depart="24416" >
				<personTrip from="670024857" to="293181550#0" modes="public" />
		</person>
		<person id="8#7" depart="27489" >
				<personTrip from="293181550#0" to="582546059#0" modes="public" />
		</person>
		<person id="8#8" depart="33669" >
				<personTrip from="582546059#0" to="394662443" modes="public" />
		</person>
		<person id="8#9" depart="35040" >
				<personTrip from="394662443" to="164439325#0" modes="public" />
		</person>
		<person id="8#10" depart="36289" >
				<personTrip from="164439325#0" to="683185824#0" modes="public" />
		</person>
		<person id="8#11" depart="39992" >
				<personTrip from="683185824#0" to="446729524" modes="public" />
		</person>
		<person id="8#12" depart="46186" >
				<personTrip from="446729524" to="393835202" modes="public" />
		</person>
		<person id="8#13" depart="48567" >
				<personTrip from="393835202" to="394010856" modes="public" />
		</person>
		<person id="8#14" depart="54157" >
				<personTrip from="394010856" to="738219281" modes="public" />
		</person>
		<person id="8#15" depart="57486" >
				<personTrip from="738219281" to="683185824#0" modes="public" />
		</person>
		<person id="8#16" depart="60702" >
				<personTrip from="683185824#0" to="533269774" modes="public" />
		</person>
		<person id="9#0" depart="329" >
				<personTrip from="162562779#0" to="630262536" modes="public" />
		</person>
		<person id="9#1" depart="2439" >
				<personTrip from="630262536" to="582546058" modes="public" />
		</person>
		<person id="9#2" depart="7526" >
				<personTrip from="582546058" to="738219281" modes="public" />
		</person>
		<person id="9#3" depart="11067" >
				<personTrip from="738219281" to="479037388#1" modes="public" />
		</person>
		<person id="9#4" depart="17571" >
				<personTrip from="479037388#1" to="259196946#0" modes="public" />
		</person>
		<person id="9#5" depart="19474" >
				<personTrip from="259196946#0" to="42299170#0" modes="public" />
		</person>
		<person id="9#6" depart="25601" >
				<personTrip from="42299170#0" to="162562140#0" modes="public" />
		</person>
		<person id="9#7" depart="32714" >
				<personTrip from="162562140#0" to="293181550#0" modes="public" />
		</person>
		<person id="9#8" depart="34255" >
				<personTrip from="293181550#0" to="407698812#0" modes="public" />
		</person>
		<person id="9#9" depart="37344" >
				<personTrip from="407698812#0" to="162562779#0" modes="public" />
		</person>
		<person id="9#10" depart="42397" >
				<personTrip from="162562779#0" to="393835202" modes="public" />
		</person>
		<person id="9#11" depart="45036" >
				<personTrip from="393835202" to="511852937#0" modes="public" />
		</person>
		<person id="9#12" depart="50669" >
				<personTrip from="511852937#0" to="353046109#0" modes="public" />
		</person>
		<person id="9#13" depart="56827" >
				<personTrip from="353046109#0" to="533269773" modes="public" />
		</person>
		<person id="9#14" depart="60922" >
				<personTrip from="533269773" to="162562779#0" modes="public" />
		</person>
		<person id="10#0" depart="334" >
				<personTrip from="533269774" to="162562779#0" modes="public" />
		</person>
		<person id="10#1" depart="4096" >
				<personTrip from="162562779#0" to="164439325#0" modes="public" />
		</person>
		<person id="10#2" depart="8953" >
				<personTrip from="164439325#0" to="353178841#0" modes="public" />
		</person>
		<person id="10#3" depart="10371" >
				<personTrip from="353178841#0" to="536208570" modes="public" />
		</person>
		<person id="10#4" depart="13074" >
				<personTrip from="536208570" to="394662440" modes="public" />
		</person>
		<person id="10#5" depart="20065" >
				<personTrip from="394662440" to="536208570" modes="public" />
		</person>
		<person id="10#6" depart="25665" >
				<personTrip from="536208570" to="162562779#0" modes="public" />
		</person>
		<person id="10#7" depart="30457" >
				<personTrip from="162562779#0" to="259196946#0" modes="public" />
		</person>
		<person id="10#8" depart="36544" >
				<personTrip from="259196946#0" to="227350281#0" modes="public" />
		</person>
		<person id="10#9" depart="37734" >
				<personTrip from="227350281#0" to="393764341#0" modes="public" />
		</person>
		<person id="10#10" depart="43331" >
				<personTrip from="393764341#0" to="259196946#0" modes="public" />
		</person>
		<person id="10#11" depart="50444" >
				<personTrip from="259196946#0" to="533269773" modes="public" />
		</person>
		<person id="10#12" depart="55251" >
				<personTrip from="533269773" to="42299170#0" modes="public" />
		</person>
		<person id="10#13" depart="59289" >
				<personTrip from="42299170#0" to="353046109#0" modes="public" />
		</person>
		<person id="10#14" depart="64599" >
				<personTrip from="353046109#0" to="533269774" modes="public" />
		</person>
		<person id="11#0" depart="323" >
				<personTrip from="533269774" to="738204219" modes="public" />
		</person>
		<person id="11#1" depart="5058" >
				<personTrip from="738204219" to="162562140#0" modes="public" />
		</person>
		<person id="11#2" depart="8385" >
				<personTrip from="162562140#0" to="670024857" modes="public" />
		</person>
		<person id="11#3" depart="11904" >
				<personTrip from="670024857" to="42299170#0" modes="public" />
		</person>
		<person id="11#4" depart="15950" >
				<personTrip from="42299170#0" to="393854027#0" modes="public" />
		</person>
		<person id="11#5" depart="19775" >
				<personTrip from="393854027#0" to="446729524" modes="public" />
		</person>
		<person id="11#6" depart="21590" >
				<personTrip from="446729524" to="393764290#1" modes="public" />
		</person>
		<person id="11#7" depart="28065" >
				<personTrip from="393764290#1" to="259196946#0" modes="public" />
		</person>
		<person id="11#8" depart="32416" >
				<personTrip from="259196946#0" to="353178841#0" modes="public" />
		</person>
		<person id="11#9" depart="37427" >
				<personTrip from="353178841#0" to="164439325#0" modes="public" />
		</person>
		<person id="11#10" depart="40263" >
				<personTrip from="164439325#0" to="482442757" modes="public" />
		</person>
		<person id="11#11" depart="45310" >
				<personTrip from="482442757" to="482442757" modes="public" />
		</person>
		<person id="11#12" depart="52247" >
				<personTrip from="482442757" to="162562779#0" modes="public" />
		</person>
		<person id="11#13" depart="58748" >
				<personTrip from="162562779#0" to="482907800" modes="public" />
		</person>
		<person id="11#14" depart="61751" >
				<personTrip from="482907800" to="533269774" modes="public" />
		</person>
		<person id="12#0" depart="274" >
				<personTrip from="162562779#0" to="738204219" modes="public" />
		</person>
		<person id="12#1" depart="4047" >
				<personTrip from="738204219" to="482907800" modes="public" />
		</person>
		<person id="12#2" depart="5483" >
				<personTrip from="482907800" to="303055947" modes="public" />
		</person>
		<person id="12#3" depart="7559" >
				<personTrip from="303055947" to="379136812#0" modes="public" />
		</person>
		<person id="12#4" depart="12398" >
				<personTrip from="379136812#0" to="293181550#0" modes="public" />
		</person>
		<person id="12#5" depart="17663" >
				<personTrip from="293181550#0" to="511852937#0" modes="public" />
		</person>
		<person id="12#6" depart="18755" >
				<personTrip from="511852937#0" to="370817780" modes="public" />
		</person>
		<person id="12#7" depart="24825" >
				<personTrip from="370817780" to="393764290#1" modes="public" />
		</person>
		<person id="12#8" depart="31487" >
				<personTrip from="393764290#1" to="683185824#0" modes="public" />
		</person>
		<person id="12#9" depart="34079" >
				<personTrip from="683185824#0" to="393835202" modes="public" />
		</person>
		<person id="12#10" depart="35963" >
				<personTrip from="393835202" to="670024857" modes="public" />
		</person>
		<person id="12#11" depart="42143" >
				<personTrip from="670024857" to="482442757" modes="public" />
		</person>
		<person id="12#12" depart="46698" >
				<personTrip from="482442757" to="42299654#0" modes="public" />
		</person>
		<person id="12#13" depart="52665" >
				<personTrip from="42299654#0" to="482907800" modes="public" />
		</person>
		<person id="12#14" depart="54800" >
				<personTrip from="482907800" to="683185817" modes="public" />
		</person>
		<person id="12#15" depart="56144" >
				<personTrip from="683185817" to="393764341#0" modes="public" />
		</person>
		<person id="12#16" depart="61812" >
				<personTrip from="393764341#0" to="162562779#0" modes="public" />
		</person>
		<person id="13#0" depart="151" >
				<personTrip from="162562779#0" to="670024857" modes="public" />
		</person>
		<person id="13#1" depart="6068" >
				<personTrip from="670024857" to="162562140#0" modes="public" />
		</person>
		<person id="13#2" depart="12838" >
				<personTrip from="162562140#0" to="407698812#0" modes="public" />
		</person>
		<person id="13#3" depart="16939" >
				<personTrip from="407698812#0" to="155291168" modes="public" />
		</person>
		<person id="13#4" depart="20199" >
				<personTrip from="155291168" to="670024857" modes="public" />
		</person>
		<person id="13#5" depart="26911" >
				<personTrip from="670024857" to="303055947" modes="public" />
		</person>
		<person id="13#6" depart="29827" >
				<personTrip from="303055947" to="393835202" modes="public" />
		</person>
		<person id="13#7" depart="36621" >
				<personTrip from="393835202" to="683185817" modes="public" />
		</person>
		<person id="13#8" depart="42555" >
				<personTrip from="683185817" to="393835202" modes="public" />
		</person>
		<person id="13#9" depart="49073" >
				<personTrip from="393835202" to="446729524" modes="public" />
		</person>
		<person id="13#10" depart="54370" >
				<personTrip from="446729524" to="42299654#0" modes="public" />
		</person>
		<person id="13#11" depart="59872" >
				<personTrip from="42299654#0" to="393854027#0" modes="public" />
		</person>
		<person id="13#12" depart="65703" >
				<personTrip from="393854027#0" to="162562779#0" modes="public" />
		</person>
		<person id="14#0" depart="186" >
				<personTrip from="533269774" to="259196946#0" modes="public" />
		</person>
		<person id="14#1" depart="6447" >
				<personTrip from="259196946#0" to="227350281#0" modes="public" />
		</person>
		<person id="14#2" depart="7637" >
				<personTrip from="227350281#0" to="394660927#1" modes="public" />
		</person>
		<person id="14#3" depart="14425" >
				<personTrip from="394660927#1" to="217840002#0" modes="public" />
		</person>
		<person id="14#4" depart="15893" >
				<personTrip from="217840002#0" to="482907800" modes="public" />
		</person>
		<person id="14#5" depart="21389" >
				<personTrip from="482907800" to="738219281" modes="public" />
		</person>
		<person id="14#6" depart="26515" >
				<personTrip from="738219281" to="533269773" modes="public" />
		</person>
		<person id="14#7" depart="31585" >
				<personTrip from="533269773" to="479037388#1" modes="public" />
		</person>
		<person id="14#8" depart="37977" >
				<personTrip from="479037388#1" to="42299170#0" modes="public" />
		</person>
		<person id="14#9" depart="41375" >
				<personTrip from="42299170#0" to="536208570" modes="public" />
		</person>
		<person id="14#10" depart="46474" >
				<personTrip from="536208570" to="93359226#0" modes="public" />
		</person>
		<person id="14#11" depart="50578" >
				<personTrip from="93359226#0" to="393764341#0" modes="public" />
		</person>
		<person id="14#12" depart="56911" >
				<personTrip from="393764341#0" to="370817780" modes="public" />
		</person>
		<person id="14#13" depart="60669" >
				<personTrip from="370817780" to="533269774" modes="public" />
		</person>
		<person id="15#0" depart="145" >
				<personTrip from="533269774" to="93359226#0" modes="public" />
		</person>
		<person id="15#1" depart="5389" >
				<personTrip from="93359226#0" to="93359226#0" modes="public" />
		</person>
		<person id="15#2" depart="11729" >
				<personTrip from="93359226#0" to="394662440" modes="public" />
		</person>
		<person id="15#3" depart="17837" >
				<personTrip from="394662440" to="394662443" modes="public" />
		</person>
		<person id="15#4" depart="20219" >
				<personTrip from="394662443" to="394660927#1" modes="public" />
		</person>
		<person id="15#5" depart="26286" >
				<personTrip from="394660927#1" to="482907800" modes="public" />
		</person>
		<person id="15#6" depart="28284" >
				<personTrip from="482907800" to="511852937#0" modes="public" />
		</person>
		<person id="15#7" depart="35326" >
				<personTrip from="511852937#0" to="42299170#0" modes="public" />
		</person>
		<person id="15#8" depart="41491" >
				<personTrip from="42299170#0" to="42299170#0" modes="public" />
		</person>
		<person id="15#9" depart="48541" >
				<personTrip from="42299170#0" to="393835202" modes="public" />
		</person>
		<person id="15#10" depart="52227" >
				<personTrip from="393835202" to="394660927#1" modes="public" />
		</person>
		<person id="15#11" depart="59318" >
				<personTrip from="394660927#1" to="227350281#0" modes="public" />
		</person>
		<person id="15#12" depart="61040" >
				<personTrip from="227350281#0" to="533269774" modes="public" />
		</person>
		<person id="16#0" depart="379" >
				<personTrip from="533269774" to="482442765#0" modes="public" />
		</person>
		<person id="16#1" depart="7054" >
				<personTrip from="482442765#0" to="482442757" modes="public" />
		</person>
		<person id="16#2" depart="8090" >
				<personTrip from="482442757" to="164439325#0" modes="public" />
		</person>
		<person id="16#3" depart="14746" >
				<personTrip from="164439325#0" to="394662443" modes="public" />
		</person>
		<person id="16#4" depart="19427" >
				<personTrip from="394662443" to="393764312" modes="public" />
		</person>
		<person id="16#5" depart="22616" >
				<personTrip from="393764312" to="393764341#0" modes="public" />
		</person>
		<person id="16#6" depart="26547" >
				<personTrip from="393764341#0" to="393835202" modes="public" />
		</person>
		<person id="16#7" depart="28296" >
				<personTrip from="393835202" to="582546059#0" modes="public" />
		</person>
		<person id="16#8" depart="29970" >
				<personTrip from="582546059#0" to="393835202" modes="public" />
		</person>
		<person id="16#9" depart="35807" >
				<personTrip from="393835202" to="479178953" modes="public" />
		</person>
		<person id="16#10" depart="37667" >
				<personTrip from="479178953" to="670024857" modes="public" />
		</person>
		<person id="16#11" depart="40926" >
				<personTrip from="670024857" to="630262536" modes="public" />
		</person>
		<person id="16#12" depart="46303" >
				<personTrip from="630262536" to="738219281" modes="public" />
		</person>
		<person id="16#13" depart="53311" >
				<personTrip from="738219281" to="394662443" modes="public" />
		</person>
		<person id="16#14" depart="58391" >
				<personTrip from="394662443" to="259196946#0" modes="public" />
		</person>
		<person id="16#15" depart="61738" >
				<personTrip from="259196946#0" to="533269774" modes="public" />
		</person>
		<person id="17#0" depart="267" >
				<personTrip from="533269774" to="394662443" modes="public" />
		</person>
		<person id="17#1" depart="3547" >