<routes xmlns:xsi="http://www.w3.org/2001/XMLSchema-instance" xsi:noNamespaceSchemaLocation="http://sumo.dlr.de/xsd/routes_file.xsd">
		<person id="1#0" depart="358" >
				<personTrip from="575224401" to="217840002#0" modes="public" />
		</person>
		<person id="1#1" depart="4609" >
				<personTrip from="217840002#0" to="393835202" modes="public" />
		</person>
		<person id="1#2" depart="9916" >
				<personTrip from="393835202" to="162562140#0" modes="public" />
		</person>
		<person id="1#3" depart="14078" >
				<personTrip from="162562140#0" to="393835202" modes="public" />
		</person>
		<person id="1#4" depart="15399" >
				<personTrip from="393835202" to="446729524" modes="public" />
		</person>
		<person id="1#5" depart="22035" >
				<personTrip from="446729524" to="479178957#0" modes="public" />
		</person>
		<person id="1#6" depart="27005" >
				<personTrip from="479178957#0" to="630262536" modes="public" />
		</person>
		<person id="1#7" depart="28215" >
				<personTrip from="630262536" to="479037390#0" modes="public" />
		</person>
		<person id="1#8" depart="31577" >
				<personTrip from="479037390#0" to="482907800" modes="public" />
		</person>
		<person id="1#9" depart="34904" >
				<personTrip from="482907800" to="393764290#1" modes="public" />
		</person>
		<person id="1#10" depart="41537" >
				<personTrip from="393764290#1" to="482907800" modes="public" />
		</person>
		<person id="1#11" depart="45839" >
				<personTrip from="482907800" to="482442765#0" modes="public" />
		</person>
		<person id="1#12" depart="53025" >
				<personTrip from="482442765#0" to="511852937#0" modes="public" />
		</person>
		<person id="1#13" depart="56780" >
				<personTrip from="511852937#0" to="155291168" modes="public" />
		</person>
		<person id="1#14" depart="63159" >
				<personTrip from="155291168" to="575224401" modes="public" />
		</person>
		<person id="2#0" depart="343" >
				<personTrip from="162562779#0" to="670024857" modes="public" />
		</person>
		<person id="2#1" depart="7324" >
				<personTrip from="670024857" to="575224401" modes="public" />
		</person>
		<person id="2#2" depart="11424" >
				<personTrip from="575224401" to="370817780" modes="public" />
		</person>
		<person id="2#3" depart="15868" >
				<personTrip from="370817780" to="394010856" modes="public" />
		</person>
		<person id="2#4" depart="20621" >
				<personTrip from="394010856" to="582546058" modes="public" />
		</person>
		<person id="2#5" depart="25831" >
				<personTrip from="582546058" to="353178841#0" modes="public" />
		</person>
		<person id="2#6" depart="32286" >
				<personTrip from="353178841#0" to="394662443" modes="public" />
		</person>
		<person id="2#7" depart="39244" >
				<personTrip from="394662443" to="511852937#0" modes="public" />
		</person>
		<person id="2#8" depart="40794" >
				<personTrip from="511852937#0" to="479037388#1" modes="public" />
		</person>
		<person id="2#9" depart="46758" >
				<personTrip from="479037388#1" to="393835202" modes="public" />
		</person>
		<person id="2#10" depart="48399" >
				<personTrip from="393835202" to="42299170#0" modes="public" />
		</person>
		<person id="2#11" depart="50670" >
				<personTrip from="42299170#0" to="393764290#1" modes="public" />
		</person>
		<person id="2#12" depart="53949" >
				<personTrip from="393764290#1" to="227350281#0" modes="public" />
		</person>
		<person id="2#13" depart="55823" >
				<personTrip from="227350281#0" to="479037390#0" modes="public" />
		</person>
		<person id="2#14" depart="58187" >
				<personTrip from="479037390#0" to="511852937#0" modes="public" />
		</person>
		<person id="2#15" depart="62601" >
				<personTrip from="511852937#0" to="162562779#0" modes="public" />
		</person>
		<person id="3#0" depart="185" >
				<personTrip from="162562779#0" to="353178841#0" modes="public" />
		</person>
		<person id="3#1" depart="6421" >
				<personTrip from="353178841#0" to="408172599" modes="public" />
		</person>
		<person id="3#2" depart="7426" >
				<personTrip from="408172599" to="533269770#0" modes="public" />
		</person>
		<person id="3#3" depart="12530" >
				<personTrip from="533269770#0" to="408172599" modes="public" />
		</person>
		<person id="3#4" depart="19233" >
				<personTrip from="408172599" to="393764290#1" modes="public" />
		</person>
		<person id="3#5" depart="24114" >
				<personTrip from="393764290#1" to="479178953" modes="public" />
		</person>
		<person id="3#6" depart="25975" >
				<personTrip from="479178953" to="533269770#0" modes="public" />
		</person>
		<person id="3#7" depart="31457" >
				<personTrip from="533269770#0" to="533269774" modes="public" />
		</person>
		<person id="3#8" depart="38586" >
				<personTrip from="533269774" to="670024857" modes="public" />
		</person>
		<person id="3#9" depart="43692" >
				<personTrip from="670024857" to="582546059#0" modes="public" />
		</person>
		<person id="3#10" depart="45610" >
				<personTrip from="582546059#0" to="394662443" modes="public" />
		</person>
		<person id="3#11" depart="52780" >
				<personTrip from="394662443" to="393764290#1" modes="public" />
		</person>
		<person id="3#12" depart="57445" >
				<personTrip from="393764290#1" to="394010856" modes="public" />
		</person>
		<person id="3#13" depart="63083" >
				<personTrip from="394010856" to="162562779#0" modes="public" />
		</person>
		<person id="4#0" depart="362" >
				<personTrip from="162562779#0" to="479178957#0" modes="public" />
		</person>
		<person id="4#1" depart="3007" >
				<personTrip from="479178957#0" to="425555630#2" modes="public" />
		</person>
		<person id="4#2" depart="5567" >
				<personTrip from="425555630#2" to="630262536" modes="public" />
		</person>
		<person id="4#3" depart="6986" >
				<personTrip from="630262536" to="408172599" modes="public" />
		</person>
		<person id="4#4" depart="11993" >
				<personTrip from="408172599" to="393835202" modes="public" />
		</person>
		<person id="4#5" depart="17979" >
				<personTrip from="393835202" to="479178953" modes="public" />
		</person>
		<person id="4#6" depart="22567" >
				<personTrip from="479178953" to="42299654#0" modes="public" />
		</person>
		<person id="4#7" depart="29591" >
				<personTrip from="42299654#0" to="683185824#0" modes="public" />
		</person>
		<person id="4#8" depart="33993" >
				<personTrip from="683185824#0" to="259196946#0" modes="public" />
		</person>
		<person id="4#9" depart="36188" >
				<personTrip from="259196946#0" to="482907800" modes="public" />
		</person>
		<person id="4#10" depart="41935" >
				<personTrip from="482907800" to="93359226#0" modes="public" />
		</person>
		<person id="4#11" depart="47759" >
				<personTrip from="93359226#0" to="425555630#2" modes="public" />
		</person>
		<person id="4#12" depart="51124" >
				<personTrip from="425555630#2" to="479178953" modes="public" />
		</person>
		<person id="4#13" depart="56219" >
				<personTrip from="479178953" to="394660927#1" modes="public" />
		</person>
		<person id="4#14" depart="61414" >
				<personTrip from="394660927#1" to="162562779#0" modes="public" />
		</person>
		<person id="5#0" depart="187" >
				<personTrip from="533269774" to="379136812#0" modes="public" />
		</person>
		<person id="5#1" depart="4271" >
				<personTrip from="379136812#0" to="738219281" modes="public" />
		</person>
		<person id="5#2" depart="10864" >
				<personTrip from="738219281" to="42299170#0" modes="public" />
		</person>
		<person id="5#3" depart="17445" >
				<personTrip from="42299170#0" to="407698812#0" modes="public" />
		</person>
		<person id="5#4" depart="19291" >
				<personTrip from="407698812#0" to="162562140#0" modes="public" />
		</person>
		<person id="5#5" depart="23949" >
				<personTrip from="162562140#0" to="738219281" modes="public" />
		</person>
		<person id="5#6" depart="29887" >
				<personTrip from="738219281" to="303055947" modes="public" />
		</person>
		<person id="5#7" depart="33888" >
				<personTrip from="303055947" to="446729524" modes="public" />
		</person>
		<person id="5#8" depart="36884" >
				<personTrip from="446729524" to="407698812#0" modes="public" />
		</person>
		<person id="5#9" depart="42364" >
				<personTrip from="407698812#0" to="394660927#1" modes="public" />
		</person>
		<person id="5#10" depart="48370" >
				<personTrip from="394660927#1" to="353046109#0" modes="public" />
		</person>
		<person id="5#11" depart="53346" >
				<personTrip from="353046109#0" to="42299170#0" modes="public" />
		</person>
		<person id="5#12" depart="59998" >
				<personTrip from="42299170#0" to="43662107#0" modes="public" />
		</person>
		<person id="5#13" depart="61229" >
				<personTrip from="43662107#0" to="533269774" modes="public" />
		</person>
		<person id="6#0" depart="245" >
				<personTrip from="533269774" to="93359226#0" modes="public" />
		</person>
		<person id="6#1" depart="7020" >
				<personTrip from="93359226#0" to="42299170#0" modes="public" />
		</person>
		<person id="6#2" depart="9100" >
				<personTrip from="42299170#0" to="370817780" modes="public" />
		</person>
		<person id="6#3" depart="11657" >
				<personTrip from="370817780" to="738219281" modes="public" />
		</person>
		<person id="6#4" depart="14527" >
				<personTrip from="738219281" to="164439325#0" modes="public" />
		</person>
		<person id="6#5" depart="16163" >
				<personTrip from="164439325#0" to="93359226#0" modes="public" />
		</person>
		<person id="6#6" depart="23076" >
				<personTrip from="93359226#0" to="43662107#0" modes="public" />
		</person>
		<person id="6#7" depart="29823" >
				<personTrip from="43662107#0" to="533269773" modes="public" />
		</person>
		<person id="6#8" depart="33811" >
				<personTrip from="533269773" to="407698812#0" modes="public" />
		</person>
		<person id="6#9" depart="37336" >
				<personTrip from="407698812#0" to="42299170#0" modes="public" />
		</person>
		<person id="6#10" depart="38394" >
				<personTrip from="42299170#0" to="394010856" modes="public" />
		</person>
		<person id="6#11" depart="41800" >
				<personTrip from="394010856" to="408172599" modes="public" />
		</person>
		<person id="6#12" depart="44240" >
				<personTrip from="408172599" to="394662443" modes="public" />
		</person>
		<person id="6#13" depart="48092" >
				<personTrip from="394662443" to="670024857" modes="public" />
		</person>
		<person id="6#14" depart="54208" >
				<personTrip from="670024857" to="162562140#0" modes="public" />
		</person>
		<person id="6#15" depart="60656" >
				<personTrip from="162562140#0" to="533269774" modes="public" />
		</person>
		<person id="7#0" depart="202" >
				<personTrip from="162562779#0" to="293181550#0" modes="public" />
		</person>
		<person id="7#1" depart="3130" >
				<personTrip from="293181550#0" to="227350281#0" modes="public" />
		</person>
		<person id="7#2" depart="8903" >
				<personTrip from="227350281#0" to="259196946#0" modes="public" />
		</person>
		<person id="7#3" depart="10384" >
				<personTrip from="259196946#0" to="259196946#0" modes="public" />
		</person>
		<person id="7#4" depart="13440" >
				<personTrip from="259196946#0" to="394660927#1" modes="public" />
		</person>
		<person id="7#5" depart="15832" >
				<personTrip from="394660927#1" to="575224401" modes="public" />
		</person>
		<person id="7#6" depart="20703" >
				<personTrip from="575224401" to="407698812#0" modes="public" />
		</person>
		<person id="7#7" depart="25144" >
				<personTrip from="407698812#0" to="670024857" modes="public" />
		</person>
		<person id="7#8" depart="32322" >
				<personTrip from="670024857" to="93359226#0" modes="public" />
		</person>
		<person id="7#9" depart="35275" >
				<personTrip from="93359226#0" to="162562140#0" modes="public" />
		</person>
		<person id="7#10" depart="38342" >
				<personTrip from="162562140#0" to="394662443" modes="public" />
		</person>
		<person id="7#11" depart="40351" >
				<personTrip from="394662443" to="630262535#0" modes="public" />
		</person>
		<person id="7#12" depart="43948" >
				<personTrip from="630262535#0" to="353046109#0" modes="public" />
		</person>
		<person id="7#13" depart="48522" >
				<personTrip from="353046109#0" to="393835202" modes="public" />
		</person>
		<person id="7#14" depart="54830" >
				<personTrip from="393835202" to="482442757" modes="public" />
		</person>
		<person id="7#15" depart="59142" >
				<personTrip from="482442757" to="393835202" modes="public" />
		</person>
		<person id="7#16" depart="64531" >
				<personTrip from="393835202" to="162562779#0" modes="public" />
		</person>
		<person id="8#0" depart="152" >
				<personTrip from="533269774" to="582546059#0" modes="public" />
		</person>
		<person id="8#1" depart="6902" >
				<personTrip from="582546059#0" to="162562779#0" modes="public" />
		</person>
		<person id="8#2" depart="9885" >
				<personTrip from="162562779#0" to="630262536" modes="public" />
		</person>
		<person id="8#3" depart="12126" >
				<personTrip from="630262536" to="393764290#1" modes="public" />
		</person>
		<person id="8#4" depart="13535" >
				<personTrip from="393764290#1" to="394662443" modes="public" />
		</person>
		<person id="8#5" depart="16909" >
				<personTrip from="394662443" to="683185824#0" modes="public" />
		</person>
		<person id="8#6" depart="17940" >
				<personTrip from="683185824#0" to="738219281" modes="public" />
		</person>
		<person id="8#7" depart="22397" >
				<personTrip from="738219281" to="479037390#0" modes="public" />
		</person>
		<person id="8#8" depart="28416" >
				<personTrip from="479037390#0" to="259196946#0" modes="public" />
		</person>
		<person id="8#9" depart="32385" >
				<personTrip from="259196946#0" to="393835202" modes="public" />
		</person>
		<person id="8#10" depart="35684" >
				<personTrip from="393835202" to="43662107#0" modes="public" />
		</person>
		<person id="8#11" depart="38680" >
				<personTrip from="43662107#0" to="43662107#0" modes="public" />
		</person>
		<person id="8#12" depart="44701" >
				<personTrip from="43662107#0" to="162562140#0" modes="public" />
		</person>
		<person id="8#13" depart="47256" >
				<personTrip from="162562140#0" to="353178841#0" modes="public" />
		</person>
		<person id="8#14" depart="49974" >
				<personTrip from="353178841#0" to="43662107#0" modes="public" />
		</person>
		<person id="8#15" depart="54600" >
				<personTrip from="43662107#0" to="408172599" modes="public" />
		</person>
		<person id="8#16" depart="58897" >
				<personTrip from="408172599" to="479037388#1" modes="public" />
		</person>
		<person id="8#17" depart="60004" >
				<personTrip from="479037388#1" to="533269774" modes="public" />
		</person>
		<person id="9#0" depart="399" >
				<personTrip from="533269774" to="393764290#1" modes="public" />
		</person>
		<person id="9#1" depart="4480" >
				<personTrip from="393764290#1" to="162562140#0" modes="public" />
		</person>
		<person id="9#2" depart="6509" >
				<personTrip from="162562140#0" to="630262536" modes="public" />
		</person>
		<person id="9#3" depart="11586" >
				<personTrip from="630262536" to="408172599" modes="public" />
		</person>
		<person id="9#4" depart="14900" >
				<personTrip from="408172599" to="353046109#0" modes="public" />
		</person>
		<person id="9#5" depart="19429" >
				<personTrip from="353046109#0" to="394662440" modes="public" />
		</person>
		<person id="9#6" depart="25237" >
				<personTrip from="394662440" to="393764290#1" modes="public" />
		</person>
		<person id="9#7" depart="31179" >
				<personTrip from="393764290#1" to="408172599" modes="public" />
		</person>
		<person id="9#8" depart="36057" >
				<personTrip from="408172599" to="393835202" modes="public" />
		</person>
		<person id="9#9" depart="38574" >
				<personTrip from="393835202" to="670024857" modes="public" />
		</person>
		<person id="9#10" depart="44782" >
				<personTrip from="670024857" to="164439325#0" modes="public" />
		</person>
		<person id="9#11" depart="48096" >
				<personTrip from="164439325#0" to="393764306" modes="public" />
		</person>
		<person id="9#12" depart="52438" >
				<personTrip from="393764306" to="425555630#2" modes="public" />
		</person>
		<person id="9#13" depart="56612" >
				<personTrip from="425555630#2" to="393764306" modes="public" />
		</person>
		<person id="9#14" depart="60744" >
				<personTrip from="393764306" to="533269774" modes="public" />
		</person>
		<person id="10#0" depart="250" >
				<personTrip from="575224401" to="162562140#0" modes="public" />
		</person>
		<person id="10#1" depart="4041" >
				<personTrip from="162562140#0" to="393764341#0" modes="public" />
		</person>
		<person id="10#2" depart="8333" >
				<personTrip from="393764341#0" to="582546059#0" modes="public" />
		</person>
		<person id="10#3" depart="14750" >
				<personTrip from="582546059#0" to="259196946#0" modes="public" />
		</person>
		<person id="10#4" depart="20334" >
				<personTrip from="259196946#0" to="394662443" modes="public" />
		</person>
		<person id="10#5" depart="21859" >
				<personTrip from="394662443" to="479178957#0" modes="public" />
		</person>
		<person id="10#6" depart="24941" >
				<personTrip from="479178957#0" to="42299654#0" modes="public" />
		</person>
		<person id="10#7" depart="30133" >
				<personTrip from="42299654#0" to="425555630#2" modes="public" />
		</person>
		<person id="10#8" depart="31309" >
				<personTrip from="425555630#2" to="511852937#0" modes="public" />
		</person>
		<person id="10#9" depart="35451" >
				<personTrip from="511852937#0" to="479037388#1" modes="public" />
		</person>
		<person id="10#10" depart="40071" >
				<personTrip from="479037388#1" to="479037390#0" modes="public" />
		</person>
		<person id="10#11" depart="44479" >
				<personTrip from="479037390#0" to="482907800" modes="public" />
		</person>
		<person id="10#12" depart="51188" >
				<personTrip from="482907800" to="683185824#0" modes="public" />
		</person>
		<person id="10#13" depart="52253" >
				<personTrip from="683185824#0" to="353178841#0" modes="public" />
		</person>
		<person id="10#14" depart="54521" >
				<personTrip from="353178841#0" to="670024857" modes="public" />
		</person>
		<person id="10#15" depart="61146" >
				<personTrip from="670024857" to="575224401" modes="public" />
		</person>
		<person id="11#0" depart="152" >
				<personTrip from="533269774" to="42299170#0" modes="public" />
		</person>
		<person id="11#1" depart="1648" >
				<personTrip from="42299170#0" to="43662107#0" modes="public" />
		</person>
		<person id="11#2" depart="7337" >
				<personTrip from="43662107#0" to="479178953" modes="public" />
		</person>
		<person id="11#3" depart="13622" >
				<personTrip from="479178953" to="582546059#0" modes="public" />
		</person>
		<person id="11#4" depart="19186" >
				<personTrip from="582546059#0" to="533269774" modes="public" />
		</person>
		<person id="11#5" depart="25845" >
				<personTrip from="533269774" to="630262535#0" modes="public" />
		</person>
		<person id="11#6" depart="32759" >
				<personTrip from="630262535#0" to="393764306" modes="public" />
		</person>
		<person id="11#7" depart="35574" >
				<personTrip from="393764306" to="479178953" modes="public" />
		</person>
		<person id="11#8" depart="38630" >
				<personTrip from="479178953" to="42299170#0" modes="public" />
		</person>
		<person id="11#9" depart="40614" >
				<personTrip from="42299170#0" to="582546058" modes="public" />
		</person>
		<person id="11#10" depart="43840" >
				<personTrip from="582546058" to="482907800" modes="public" />
		</person>
		<person id="11#11" depart="49532" >
				<personTrip from="482907800" to="575224401" modes="public" />
		</person>
		<person id="11#12" depart="56545" >
				<personTrip from="575224401" to="582546059#0" modes="public" />
		</person>
		<person id="11#13" depart="57666" >
				<personTrip from="582546059#0" to="155291168" modes="public" />
		</person>
		<person id="11#14" depart="60798" >
				<personTrip from="155291168" to="533269774" modes="public" />
		</person>
		<person id="12#0" depart="336" >
				<personTrip from="533269774" to="394660927#1" modes="public" />
		</person>
		<person id="12#1" depart="2573" >
				<personTrip from="394660927#1" to="482442765#0" modes="public" />
		</person>
		<person id="12#2" depart="4379" >
				<personTrip from="482442765#0" to="630262535#0" modes="public" />
		</person>
		<person id="12#3" depart="10998" >
				<personTrip from="630262535#0" to="162562140#0" modes="public" />
		</person>
		<person id="12#4" depart="16081" >
				<personTrip from="162562140#0" to="93359226#0" modes="public" />
		</person>
		<person id="12#5" depart="21331" >
				<personTrip from="93359226#0" to="533269775" modes="public" />
		</person>
		<person id="12#6" depart="24834" >
				<personTrip from="533269775" to="533269774" modes="public" />
		</person>
		<person id="12#7" depart="25918" >
				<personTrip from="533269774" to="379136812#0" modes="public" />
		</person>
		<person id="12#8" depart="32763" >
				<personTrip from="379136812#0" to="43662107#0" modes="public" />
		</person>
		<person id="12#9" depart="37774" >
				<personTrip from="43662107#0" to="293181550#0" modes="public" />
		</person>
		<person id="12#10" depart="40372" >
				<personTrip from="293181550#0" to="533269775" modes="public" />
		</person>
		<person id="12#11" depart="41489" >
				<personTrip from="533269775" to="394662440" modes="public" />
		</person>
		<person id="12#12" depart="45868" >
				<personTrip from="394662440" to="393835202" modes="public" />
		</person>
		<person id="12#13" depart="52406" >
				<personTrip from="393835202" to="446729524" modes="public" />
		</person>
		<person id="12#14" depart="56375" >
				<personTrip from="446729524" to="43662107#0" modes="public" />
		</person>
		<person id="12#15" depart="59493" >
				<personTrip from="43662107#0" to="162562140#0" modes="public" />
		</person>
		<person id="12#16" depart="66015" >
				<personTrip from="162562140#0" to="533269774" modes="public" />
		</person>
		<person id="13#0" depart="145" >
				<personTrip from="533269774" to="482442765#0" modes="public" />
		</person>
		<person id="13#1" depart="1182" >
				<personTrip from="482442765#0" to="582546059#0" modes="public" />
		</person>
		<person id="13#2" depart="4466" >
				<personTrip from="582546059#0" to="42299170#0" modes="public" />
		</person>
		<person id="13#3" depart="8812" >
				<personTrip from="42299170#0" to="93359226#0" modes="public" />
		</person>
		<person id="13#4" depart="9743" >
				<personTrip from="93359226#0" to="393764290#1" modes="public" />
		</person>
		<person id="13#5" depart="13481" >
				<personTrip from="393764290#1" to="482442765#0" modes="public" />
		</person>
		<person id="13#6" depart="19951" >
				<personTrip from="482442765#0" to="511852937#0" modes="public" />
		</person>
		<person id="13#7" depart="24323" >
				<personTrip from="511852937#0" to="394662440" modes="public" />
		</person>
		<person id="13#8" depart="30560" >
				<personTrip from="394662440" to="533269774" modes="public" />
		</person>
		<person id="13#9" depart="31834" >
				<personTrip from="533269774" to="533269774" modes="public" />
		</person>
		<person id="13#10" depart="38427" >
				<personTrip from="533269774" to="479037388#1" modes="public" />
		</person>
		<person id="13#11" depart="43820" >
				<personTrip from="479037388#1" to="393764306" modes="public" />
		</person>
		<person id="13#12" depart="50645" >
				<personTrip from="393764306" to="162562140#0" modes="public" />
		</person>
		<person id="13#13" depart="55833" >
				<personTrip from="162562140#0" to="93359226#0" modes="public" />
		</person>
		<person id="13#14" depart="60251" >
				<personTrip from="93359226#0" to="533269774" modes="public" />
		</person>
		<person id="14#0" depart="275" >
				<personTrip from="162562779#0" to="43662107#0" modes="public" />
		</person>
		<person id="14#1" depart="3649" >
				<personTrip from="43662107#0" to="379136812#0" modes="public" />
		</person>
		<person id="14#2" depart="5255" >
				<personTrip from="379136812#0" to="42299170#0" modes="public" />
		</person>
		<person id="14#3" depart="8590" >
				<personTrip from="42299170#0" to="353046109#0" modes="public" />
		</person>
		<person id="14#4" depart="14717" >
				<personTrip from="353046109#0" to="482907800" modes="public" />
		</person>
		<person id="14#5" depart="21500" >
				<personTrip from="482907800" to="293181550#0" modes="public" />
		</person>
		<person id="14#6" depart="28057" >
				<personTrip from="293181550#0" to="293181550#0" modes="public" />
		</person>
		<person id="14#7" depart="29721" >
				<personTrip from="293181550#0" to="379136812#0" modes="public" />
		</person>
		<person id="14#8" depart="35673" >
				<personTrip from="379136812#0" to="446729524" modes="public" />
		</person>
		<person id="14#9" depart="40280" >
				<personTrip from="446729524" to="446729524" modes="public" />
		</person>
		<person id="14#10" depart="44246" >
				<personTrip from="446729524" to="533269774" modes="public" />
		</person>
		<person id="14#11" depart="50363" >
				<personTrip from="533269774" to="42299170#0" modes="public" />
		</person>
		<person id="14#12" depart="52660" >
				<personTrip from="42299170#0" to="303055947" modes="public" />
		</person>
		<person id="14#13" depart="59297" >
				<personTrip from="303055947" to="93359226#0" modes="public" />
		</person>
		<person id="14#14" depart="64526" >
				<personTrip from="93359226#0" to="162562779#0" modes="public" />
		</person>
		<person id="15#0" depart="383" >
				<personTrip from="533269774" to="43662107#0" modes="public" />
		</person>
		<person id="15#1" depart="5402" >
				<personTrip from="43662107#0" to="393854027#0" modes="public" />
		</person>
		<person id="15#2" depart="11135" >
				<personTrip from="393854027#0" to="630262536" modes="public" />
		</person>
		<person id="15#3" depart="16837" >
				<personTrip from="630262536" to="394010856" modes="public" />
		</person>
		<person id="15#4" depart="23280" >
				<personTrip from="394010856" to="582546058" modes="public" />
		</person>
		<person id="15#5" depart="27210" >
				<personTrip from="582546058" to="407698812#0" modes="public" />
		</person>
		<person id="15#6" depart="33539" >
				<personTrip from="407698812#0" to="393854027#0" modes="public" />
		</person>
		<person id="15#7" depart="39709" >
				<personTrip from="393854027#0" to="479037388#1" modes="public" />
		</person>
		<person id="15#8" depart="44248" >
				<personTrip from="479037388#1" to="293181550#0" modes="public" />
		</person>
		<person id="15#9" depart="45824" >
				<personTrip from="293181550#0" to="353178841#0" modes="public" />
		</person>
		<person id="15#10" depart="49326" >
				<personTrip from="353178841#0" to="393835202" modes="public" />
		</person>
		<person id="15#11" depart="53897" >
				<personTrip from="393835202" to="393835202" modes="public" />
		</person>
		<person id="15#12" depart="57519" >
				<personTrip from="393835202" to="575224401" modes="public" />
		</person>
		<person id="15#13" depart="59309" >
				<personTrip from="575224401" to="42299170#0" modes="public" />
		</person>
		<person id="15#14" depart="64488" >
				<personTrip from="42299170#0" to="533269774" modes="public" />
		</person>
		<person id="16#0" depart="259" >
				<personTrip from="533269774" to="394662443" modes="public" />
		</person>
		<person id="16#1" depart="4254" >
				<personTrip from="394662443" to="393764290#1" modes="public" />
		</person>
		<person id="16#2" depart="6128" >
				<personTrip from="393764290#1" to="293181550#0" modes="public" />
		</person>
		<person id="16#3" depart="8104" >
				<personTrip from="293181550#0" to="370817780" modes="public" />
		</person>
		<person id="16#4" depart="10554" >
				<personTrip from="370817780" to="482907800" modes="public" />
		</person>
		<person id="16#5" depart="12381" >
				<personTrip from="482907800" to="42299170#0" modes="public" />
		</person>
		<person id="16#6" depart="17002" >
				<personTrip from="42299170#0" to="42299654#0" modes="public" />
		</person>
		<person id="16#7" depart="18211" >
				<personTrip from="42299654#0" to="223812322" modes="public" />
		</person>
		<person id="16#8" depart="23152" >
				<personTrip from="223812322" to="446729524" modes="public" />
		</person>
		<person id="16#9" depart="26312" >
				<personTrip from="446729524" to="407698812#0" modes="public" />
		</person>
		<person id="16#10" depart="28031" >
				<personTrip from="407698812#0" to="155291168" modes="public" />
		</person>
		<person id="16#11" depart="34005" >
				<personTrip from="155291168" to="683185817" modes="public" />
		</person>
		<person id="16#12" depart="37840" >
				<personTrip from="683185817" to="353046109#0" modes="public" />
		</person>
		<person id="16#13" depart="44737" >
				<personTrip from="353046109#0" to="223812322" modes="public" />
		</person>
		<person id="16#14" depart="50260" >
				<personTrip from="223812322" to="394662443" modes="public" />
		</person>
		<person id="16#15" depart="57106" >
				<personTrip from="394662443" to="42299170#0" modes="public" />
		</person>
		<person id="16#16" depart="63853" >
				<personTrip from="42299170#0" to="533269774" modes="public" />
		</person>
		<person id="17#0" depart="263" >
				<personTrip from="162562779#0" to="630262535#0" modes="public" />
		</person>
		<person id="17#1" depart="2701" >
				<personTrip from="630262535#0" to="303055947" modes="public" />
		</person>
		<person id="17#2" depart="6242" >
				<personTrip from="303055947" to="393835202" modes="public" />
		</person>
		<person id="17#3" depart="7748" >
				<personTrip from="393835202" to="42299654#0" modes="public" />
		</person>
		<person id="17#4" depart="12067" >
				<personTrip from="42299654#0" to="393764312" modes="public" />
		</person>
		<person id="17#5" depart="17018" >
				<personTrip from="393764312" to="482907800" modes="public" />
		</person>
		<person id="17#6" depart="21717" >