<routes xmlns:xsi="http://www.w3.org/2001/XMLSchema-instance" xsi:noNamespaceSchemaLocation="http://sumo.dlr.de/xsd/routes_file.xsd">
		<person id="1#0" depart="343" >
				<personTrip from="575224401" to="293181550#0" modes="public" />
		</person>
		<person id="1#1" depart="3800" >
				<personTrip from="293181550#0" to="482907800" modes="public" />
		</person>
		<person id="1#2" depart="6397" >
				<personTrip from="482907800" to="43662107#0" modes="public" />
		</person>
		<person id="1#3" depart="7682" >
				<personTrip from="43662107#0" to="259196946#0" modes="public" />
		</person>
		<person id="1#4" depart="12580" >
				<personTrip from="259196946#0" to="683185824#0" modes="public" />
		</person>
		<person id="1#5" depart="18979" >
				<personTrip from="683185824#0" to="353046109#0" modes="public" />
		</person>
		<person id="1#6" depart="22905" >
				<personTrip from="353046109#0" to="393764306" modes="public" />
		</person>
		<person id="1#7" depart="26336" >
				<personTrip from="393764306" to="293181550#0" modes="public" />
		</person>
		<person id="1#8" depart="28159" >
				<personTrip from="293181550#0" to="43662107#0" modes="public" />
		</person>
		<person id="1#9" depart="34025" >
				<personTrip from="43662107#0" to="393854027#0" modes="public" />
		</person>
		<person id="1#10" depart="41152" >
				<personTrip from="393854027#0" to="582546058" modes="public" />
		</person>
		<person id="1#11" depart="43384" >
				<personTrip from="582546058" to="370817780" modes="public" />
		</person>
		<person id="1#12" depart="48686" >
				<personTrip from="370817780" to="582546059#0" modes="public" />
		</person>
		<person id="1#13" depart="54052" >
				<personTrip from="582546059#0" to="683185824#0" modes="public" />
		</person>
		<person id="1#14" depart="59280" >
				<personTrip from="683185824#0" to="259196946#0" modes="public" />
		</person>
		<person id="1#15" depart="65437" >
				<personTrip from="259196946#0" to="575224401" modes="public" />
		</person>
		<person id="2#0" depart="194" >
				<personTrip from="162562779#0" to="670024857" modes="public" />
		</person>
		<person id="2#1" depart="5540" >
				<personTrip from="670024857" to="407698812#0" modes="public" />
		</person>
		<person id="2#2" depart="9779" >
				<personTrip from="407698812#0" to="393764341#0" modes="public" />
		</person>
		<person id="2#3" depart="10873" >
				<personTrip from="393764341#0" to="370817780" modes="public" />
		</person>
		<person id="2#4" depart="13143" >
				<personTrip from="370817780" to="738204219" modes="public" />
		</person>
		<person id="2#5" depart="20027" >
				<personTrip from="738204219" to="293181550#0" modes="public" />
		</person>
		<person id="2#6" depart="22282" >
				<personTrip from="293181550#0" to="393854027#0" modes="public" />
		</person>
		<person id="2#7" depart="23605" >
				<personTrip from="393854027#0" to="630262535#0" modes="public" />
		</person>
		<person id="2#8" depart="29681" >
				<personTrip from="630262535#0" to="670024857" modes="public" />
		</person>
		<person id="2#9" depart="31267" >
				<personTrip from="670024857" to="738204219" modes="public" />
		</person>
		<person id="2#10" depart="36216" >
				<personTrip from="738204219" to="259196946#0" modes="public" />
		</person>
		<person id="2#11" depart="39039" >
				<personTrip from="259196946#0" to="370817780" modes="public" />
		</person>
		<person id="2#12" depart="41025" >
				<personTrip from="370817780" to="479178957#0" modes="public" />
		</person>
		<person id="2#13" depart="44070" >
				<personTrip from="479178957#0" to="446729524" modes="public" />
		</person>
		<person id="2#14" depart="50055" >
				<personTrip from="446729524" to="394662440" modes="public" />
		</person>
		<person id="2#15" depart="52242" >
				<personTrip from="394662440" to="536208570" modes="public" />
		</person>
		<person id="2#16" depart="55480" >
				<personTrip from="536208570" to="353178841#0" modes="public" />
		</person>
		<person id="2#17" depart="57693" >
				<personTrip from="353178841#0" to="217840002#0" modes="public" />
		</person>
		<person id="2#18" depart="61899" >
				<personTrip from="217840002#0" to="162562779#0" modes="public" />
		</person>
		<person id="3#0" depart="138" >
				<personTrip from="533269774" to="738219281" modes="public" />
		</person>
		<person id="3#1" depart="7275" >
				<personTrip from="738219281" to="670024857" modes="public" />
		</person>
		<person id="3#2" depart="10255" >
				<personTrip from="670024857" to="407698812#0" modes="public" />
		</person>
		<person id="3#3" depart="13579" >
				<personTrip from="407698812#0" to="394010856" modes="public" />
		</person>
		<person id="3#4" depart="17796" >
				<personTrip from="394010856" to="162562779#0" modes="public" />
		</person>
		<person id="3#5" depart="24895" >
				<personTrip from="162562779#0" to="670024857" modes="public" />
		</person>
		<person id="3#6" depart="31560" >
				<personTrip from="670024857" to="683185824#0" modes="public" />
		</person>
		<person id="3#7" depart="35896" >
				<personTrip from="683185824#0" to="738219281" modes="public" />
		</person>
		<person id="3#8" depart="41458" >
				<personTrip from="738219281" to="353178841#0" modes="public" />
		</person>
		<person id="3#9" depart="47309" >
				<personTrip from="353178841#0" to="223812322" modes="public" />
		</person>
		<person id="3#10" depart="54033" >
				<personTrip from="223812322" to="738204219" modes="public" />
		</person>
		<person id="3#11" depart="56850" >
				<personTrip from="738204219" to="630262535#0" modes="public" />
		</person>
		<person id="3#12" depart="62189" >
				<personTrip from="630262535#0" to="533269774" modes="public" />
		</person>
		<person id="4#0" depart="393" >
				<personTrip from="533269774" to="533269774" modes="public" />
		</person>
		<person id="4#1" depart="3977" >
				<personTrip from="533269774" to="393764290#1" modes="public" />
		</person>
		<person id="4#2" depart="5181" >
				<personTrip from="393764290#1" to="393835202" modes="public" />
		</person>
		<person id="4#3" depart="7617" >
				<personTrip from="393835202" to="533269770#0" modes="public" />
		</person>
		<person id="4#4" depart="10490" >
				<personTrip from="533269770#0" to="394660927#1" modes="public" />
		</person>
		<person id="4#5" depart="16021" >
				<personTrip from="394660927#1" to="738204219" modes="public" />
		</person>
		<person id="4#6" depart="22362" >
				<personTrip from="738204219" to="479178953" modes="public" />
		</person>
		<person id="4#7" depart="24498" >
				<personTrip from="479178953" to="479178957#0" modes="public" />
		</person>
		<person id="4#8" depart="29944" >
				<personTrip from="479178957#0" to="370817780" modes="public" />
		</person>
		<person id="4#9" depart="37144" >
				<personTrip from="370817780" to="393764312" modes="public" />
		</person>
		<person id="4#10" depart="41810" >
				<personTrip from="393764312" to="670024857" modes="public" />
		</person>
		<person id="4#11" depart="43141" >
				<personTrip from="670024857" to="393854027#0" modes="public" />
		</person>
		<person id="4#12" depart="50215" >
				<personTrip from="393854027#0" to="393764312" modes="public" />
		</person>
		<person id="4#13" depart="52314" >
				<personTrip from="393764312" to="155291168" modes="public" />
		</person>
		<person id="4#14" depart="58925" >
				<personTrip from="155291168" to="394662443" modes="public" />
		</person>
		<person id="4#15" depart="63471" >
				<personTrip from="394662443" to="533269774" modes="public" />
		</person>
		<person id="5#0" depart="360" >
				<personTrip from="162562779#0" to="407698812#0" modes="public" />
		</person>
		<person id="5#1" depart="4290" >
				<personTrip from="407698812#0" to="479178957#0" modes="public" />
		</person>
		<person id="5#2" depart="5729" >
				<personTrip from="479178957#0" to="482442765#0" modes="public" />
		</person>
		<person id="5#3" depart="6654" >
				<personTrip from="482442765#0" to="259196946#0" modes="public" />
		</person>
		<person id="5#4" depart="12384" >
				<personTrip from="259196946#0" to="479178953" modes="public" />
		</person>
		<person id="5#5" depart="14743" >
				<personTrip from="479178953" to="393764306" modes="public" />
		</person>
		<person id="5#6" depart="21907" >
				<personTrip from="393764306" to="670024857" modes="public" />
		</person>
		<person id="5#7" depart="26203" >
				<personTrip from="670024857" to="227350281#0" modes="public" />
		</person>
		<person id="5#8" depart="30747" >
				<personTrip from="227350281#0" to="43662107#0" modes="public" />
		</person>
		<person id="5#9" depart="33343" >
				<personTrip from="43662107#0" to="259196946#0" modes="public" />
		</person>
		<person id="5#10" depart="40033" >
				<personTrip from="259196946#0" to="394662443" modes="public" />
		</person>
		<person id="5#11" depart="47054" >
				<personTrip from="394662443" to="42299170#0" modes="public" />
		</person>
		<person id="5#12" depart="52326" >
				<personTrip from="42299170#0" to="379136812#0" modes="public" />
		</person>
		<person id="5#13" depart="57928" >
				<personTrip from="379136812#0" to="536208570" modes="public" />
		</person>
		<person id="5#14" depart="58924" >
				<personTrip from="536208570" to="393764290#1" modes="public" />
		</person>
		<person id="5#15" depart="65432" >
				<personTrip from="393764290#1" to="162562779#0" modes="public" />
		</person>
		<person id="6#0" depart="200" >
				<personTrip from="533269774" to="162562779#0" modes="public" />
		</person>
		<person id="6#1" depart="4942" >
				<personTrip from="162562779#0" to="43662107#0" modes="public" />
		</person>
		<person id="6#2" depart="9468" >
				<personTrip from="43662107#0" to="394662443" modes="public" />
		</person>
		<person id="6#3" depart="15738" >
				<personTrip from="394662443" to="164439325#0" modes="public" />
		</person>
		<person id="6#4" depart="22476" >
				<personTrip from="164439325#0" to="370817780" modes="public" />
		</person>
		<person id="6#5" depart="26439" >
				<personTrip from="370817780" to="533269773" modes="public" />
		</person>
		<person id="6#6" depart="27900" >
				<personTrip from="533269773" to="223812322" modes="public" />
		</person>
		<person id="6#7" depart="29685" >
				<personTrip from="223812322" to="482907800" modes="public" />
		</person>
		<person id="6#8" depart="33604" >
				<personTrip from="482907800" to="353046109#0" modes="public" />
		</person>
		<person id="6#9" depart="39090" >
				<personTrip from="353046109#0" to="533269773" modes="public" />
		</person>
		<person id="6#10" depart="45666" >
				<personTrip from="533269773" to="582546059#0" modes="public" />
		</person>
		<person id="6#11" depart="46978" >
				<personTrip from="582546059#0" to="511852937#0" modes="public" />
		</person>
		<person id="6#12" depart="53344" >
				<personTrip from="511852937#0" to="394662440" modes="public" />
		</person>
		<person id="6#13" depart="56565" >
				<personTrip from="394662440" to="479178957#0" modes="public" />
		</person>
		<person id="6#14" depart="59741" >
				<personTrip from="479178957#0" to="353046109#0" modes="public" />
		</person>
		<person id="6#15" depart="63286" >
				<personTrip from="353046109#0" to="533269774" modes="public" />
		</person>
		<person id="7#0" depart="202" >
				<personTrip from="162562779#0" to="353178841#0" modes="public" />
		</person>
		<person id="7#1" depart="6051" >
				<personTrip from="353178841#0" to="482907800" modes="public" />
		</person>
		<person id="7#2" depart="8925" >
				<personTrip from="482907800" to="353178841#0" modes="public" />
		</person>
		<person id="7#3" depart="13680" >
				<personTrip from="353178841#0" to="670024857" modes="public" />
		</person>
		<person id="7#4" depart="15374" >
				<personTrip from="670024857" to="407698812#0" modes="public" />
		</person>
		<person id="7#5" depart="17610" >
				<personTrip from="407698812#0" to="482442765#0" modes="public" />
		</person>
		<person id="7#6" depart="22578" >
				<personTrip from="482442765#0" to="42299170#0" modes="public" />
		</person>
		<person id="7#7" depart="26445" >
				<personTrip from="42299170#0" to="393764290#1" modes="public" />
		</person>
		<person id="7#8" depart="27702" >
				<personTrip from="393764290#1" to="217840002#0" modes="public" />
		</person>
		<person id="7#9" depart="30731" >
				<personTrip from="217840002#0" to="408172599" modes="public" />
		</person>
		<person id="7#10" depart="35625" >
				<personTrip from="408172599" to="393835202" modes="public" />
		</person>
		<person id="7#11" depart="37405" >
				<personTrip from="393835202" to="394662440" modes="public" />
		</person>
		<person id="7#12" depart="39669" >
				<personTrip from="394662440" to="223812322" modes="public" />
		</person>
		<person id="7#13" depart="41609" >
				<personTrip from="223812322" to="479037390#0" modes="public" />
		</person>
		<person id="7#14" depart="47891" >
				<personTrip from="479037390#0" to="683185824#0" modes="public" />
		</person>
		<person id="7#15" depart="48953" >
				<personTrip from="683185824#0" to="217840002#0" modes="public" />
		</person>
		<person id="7#16" depart="50094" >
				<personTrip from="217840002#0" to="479178957#0" modes="public" />
		</person>
		<person id="7#17" depart="56421" >
				<personTrip from="479178957#0" to="533269773" modes="public" />
		</person>
		<person id="7#18" depart="61175" >
				<personTrip from="533269773" to="162562779#0" modes="public" />
		</person>
		<person id="8#0" depart="245" >
				<personTrip from="533269774" to="393764306" modes="public" />
		</person>
		<person id="8#1" depart="5284" >
				<personTrip from="393764306" to="293181550#0" modes="public" />
		</person>
		<person id="8#2" depart="7649" >
				<personTrip from="293181550#0" to="217840002#0" modes="public" />
		</person>
		<person id="8#3" depart="11397" >
				<personTrip from="217840002#0" to="446729524" modes="public" />
		</person>
		<person id="8#4" depart="15922" >
				<personTrip from="446729524" to="407698812#0" modes="public" />
		</person>
		<person id="8#5" depart="22157" >
				<personTrip from="407698812#0" to="370817780" modes="public" />
		</person>
		<person id="8#6" depart="25937" >
				<personTrip from="370817780" to="43662107#0" modes="public" />
		</person>
		<person id="8#7" depart="27909" >
				<personTrip from="43662107#0" to="738219281" modes="public" />
		</person>
		<person id="8#8" depart="30290" >
				<personTrip from="738219281" to="259196946#0" modes="public" />
		</person>
		<person id="8#9" depart="32874" >
				<personTrip from="259196946#0" to="42299170#0" modes="public" />
		</person>
		<person id="8#10" depart="36442" >
				<personTrip from="42299170#0" to="43662107#0" modes="public" />
		</person>
		<person id="8#11" depart="38156" >
				<personTrip from="43662107#0" to="379136812#0" modes="public" />
		</person>
		<person id="8#12" depart="43672" >
				<personTrip from="379136812#0" to="575224401" modes="public" />
		</person>
		<person id="8#13" depart="50269" >
				<personTrip from="575224401" to="93359226#0" modes="public" />
		</person>
		<person id="8#14" depart="54501" >
				<personTrip from="93359226#0" to="162562779#0" modes="public" />
		</person>
		<person id="8#15" depart="56773" >
				<personTrip from="162562779#0" to="394660927#1" modes="public" />
		</person>
		<person id="8#16" depart="57940" >
				<personTrip from="394660927#1" to="393764306" modes="public" />
		</person>
		<person id="8#17" depart="60241" >
				<personTrip from="393764306" to="533269774" modes="public" />
		</person>
		<person id="9#0" depart="120" >
				<personTrip from="533269774" to="393764341#0" modes="public" />
		</person>
		<person id="9#1" depart="6093" >
				<personTrip from="393764341#0" to="582546058" modes="public" />
		</person>
		<person id="9#2" depart="11679" >
				<personTrip from="582546058" to="683185824#0" modes="public" />
		</person>
		<person id="9#3" depart="12656" >
				<personTrip from="683185824#0" to="227350281#0" modes="public" />
		</person>
		<person id="9#4" depart="15270" >
				<personTrip from="227350281#0" to="738219281" modes="public" />
		</person>
		<person id="9#5" depart="16367" >
				<personTrip from="738219281" to="533269773" modes="public" />
		</person>
		<person id="9#6" depart="17518" >
				<personTrip from="533269773" to="407698812#0" modes="public" />
		</person>
		<person id="9#7" depart="22611" >
				<personTrip from="407698812#0" to="393764290#1" modes="public" />
		</person>
		<person id="9#8" depart="24183" >
				<personTrip from="393764290#1" to="393764290#1" modes="public" />
		</person>
		<person id="9#9" depart="28198" >
				<personTrip from="393764290#1" to="575224401" modes="public" />
		</person>
		<person id="9#10" depart="32253" >
				<personTrip from="575224401" to="379136812#0" modes="public" />
		</person>
		<person id="9#11" depart="38535" >
				<personTrip from="379136812#0" to="370817780" modes="public" />
		</person>
		<person id="9#12" depart="43019" >
				<personTrip from="370817780" to="93359226#0" modes="public" />
		</person>
		<person id="9#13" depart="48944" >
				<personTrip from="93359226#0" to="408172599" modes="public" />
		</person>
		<person id="9#14" depart="50208" >
				<personTrip from="408172599" to="393854027#0" modes="public" />
		</person>
		<person id="9#15" depart="55851" >
				<personTrip from="393854027#0" to="536208570" modes="public" />
		</person>
		<person id="9#16" depart="57423" >
				<personTrip from="536208570" to="43662107#0" modes="public" />
		</person>
		<person id="9#17" depart="60253" >
				<personTrip from="43662107#0" to="533269774" modes="public" />
		</person>
		<person id="10#0" depart="212" >
				<personTrip from="162562779#0" to="42299170#0" modes="public" />
		</person>
		<person id="10#1" depart="1386" >
				<personTrip from="42299170#0" to="394662443" modes="public" />
		</person>
		<person id="10#2" depart="3241" >
				<personTrip from="394662443" to="162562140#0" modes="public" />
		</person>
		<person id="10#3" depart="6083" >
				<personTrip from="162562140#0" to="407698812#0" modes="public" />
		</person>
		<person id="10#4" depart="7954" >
				<personTrip from="407698812#0" to="425555630#2" modes="public" />
		</person>
		<person id="10#5" depart="14192" >
				<personTrip from="425555630#2" to="223812322" modes="public" />
		</person>
		<person id="10#6" depart="17189" >
				<personTrip from="223812322" to="533269774" modes="public" />
		</person>
		<person id="10#7" depart="23886" >
				<personTrip from="533269774" to="43662107#0" modes="public" />
		</person>
		<person id="10#8" depart="24840" >
				<personTrip from="43662107#0" to="407698812#0" modes="public" />
		</person>
		<person id="10#9" depart="28116" >
				<personTrip from="407698812#0" to="479178953" modes="public" />
		</person>
		<person id="10#10" depart="29097" >
				<personTrip from="479178953" to="393764312" modes="public" />
		</person>
		<person id="10#11" depart="34412" >
				<personTrip from="393764312" to="393835202" modes="public" />
		</person>
		<person id="10#12" depart="37999" >
				<personTrip from="393835202" to="393764312" modes="public" />
		</person>
		<person id="10#13" depart="41818" >
				<personTrip from="393764312" to="479178957#0" modes="public" />
		</person>
		<person id="10#14" depart="43249" >
				<personTrip from="479178957#0" to="407698812#0" modes="public" />
		</person>
		<person id="10#15" depart="44984" >
				<personTrip from="407698812#0" to="42299170#0" modes="public" />
		</person>
		<person id="10#16" depart="50641" >
				<personTrip from="42299170#0" to="259196946#0" modes="public" />
		</person>
		<person id="10#17" depart="54203" >
				<personTrip from="259196946#0" to="162562140#0" modes="public" />
		</person>
		<person id="10#18" depart="56951" >
				<personTrip from="162562140#0" to="582546059#0" modes="public" />
		</person>
		<person id="10#19" depart="59278" >
				<personTrip from="582546059#0" to="479178957#0" modes="public" />
		</person>
		<person id="10#20" depart="65877" >
				<personTrip from="479178957#0" to="162562779#0" modes="public" />
		</person>
		<person id="11#0" depart="118" >
				<personTrip from="162562779#0" to="353046109#0" modes="public" />
		</person>
		<person id="11#1" depart="3658" >
				<personTrip from="353046109#0" to="533269774" modes="public" />
		</person>
		<person id="11#2" depart="6828" >
				<personTrip from="533269774" to="670024857" modes="public" />
		</person>
		<person id="11#3" depart="12196" >
				<personTrip from="670024857" to="155291168" modes="public" />
		</person>
		<person id="11#4" depart="17623" >
				<personTrip from="155291168" to="379136812#0" modes="public" />
		</person>
		<person id="11#5" depart="22150" >
				<personTrip from="379136812#0" to="227350281#0" modes="public" />
		</person>
		<person id="11#6" depart="26829" >
				<personTrip from="227350281#0" to="223812322" modes="public" />
		</person>
		<person id="11#7" depart="27747" >
				<personTrip from="223812322" to="393835202" modes="public" />
		</person>
		<person id="11#8" depart="31564" >
				<personTrip from="393835202" to="482442757" modes="public" />
		</person>
		<person id="11#9" depart="36260" >
				<personTrip from="482442757" to="393764312" modes="public" />
		</person>
		<person id="11#10" depart="37447" >
				<personTrip from="393764312" to="227350281#0" modes="public" />
		</person>
		<person id="11#11" depart="41815" >
				<personTrip from="227350281#0" to="479178957#0" modes="public" />
		</person>
		<person id="11#12" depart="47236" >
				<personTrip from="479178957#0" to="42299654#0" modes="public" />
		</person>
		<person id="11#13" depart="49074" >
				<personTrip from="42299654#0" to="43662107#0" modes="public" />
		</person>
		<person id="11#14" depart="54179" >
				<personTrip from="43662107#0" to="164439325#0" modes="public" />
		</person>
		<person id="11#15" depart="57556" >
				<personTrip from="164439325#0" to="407698812#0" modes="public" />
		</person>
		<person id="11#16" depart="61102" >
				<personTrip from="407698812#0" to="162562779#0" modes="public" />
		</person>
		<person id="12#0" depart="310" >
				<personTrip from="162562779#0" to="93359226#0" modes="public" />
		</person>
		<person id="12#1" depart="6036" >
				<personTrip from="93359226#0" to="482442757" modes="public" />
		</person>
		<person id="12#2" depart="7401" >
				<personTrip from="482442757" to="479037390#0" modes="public" />
		</person>
		<person id="12#3" depart="8707" >
				<personTrip from="479037390#0" to="43662107#0" modes="public" />
		</person>
		<person id="12#4" depart="15170" >
				<personTrip from="43662107#0" to="533269770#0" modes="public" />
		</person>
		<person id="12#5" depart="16481" >
				<personTrip from="533269770#0" to="393835202" modes="public" />
		</person>
		<person id="12#6" depart="23093" >
				<personTrip from="393835202" to="303055947" modes="public" />
		</person>
		<person id="12#7" depart="26533" >
				<personTrip from="303055947" to="446729524" modes="public" />
		</person>
		<person id="12#8" depart="28821" >
				<personTrip from="446729524" to="533269775" modes="public" />
		</person>
		<person id="12#9" depart="30802" >
				<personTrip from="533269775" to="479037388#1" modes="public" />
		</person>
		<person id="12#10" depart="37190" >
				<personTrip from="479037388#1" to="575224401" modes="public" />
		</person>
		<person id="12#11" depart="41757" >
				<personTrip from="575224401" to="393835202" modes="public" />
		</person>
		<person id="12#12" depart="45092" >
				<personTrip from="393835202" to="393835202" modes="public" />
		</person>
		<person id="12#13" depart="46946" >
				<personTrip from="393835202" to="394662443" modes="public" />
		</person>
		<person id="12#14" depart="51872" >
				<personTrip from="394662443" to="42299170#0" modes="public" />
		</person>
		<person id="12#15" depart="58505" >
				<personTrip from="42299170#0" to="670024857" modes="public" />
		</person>
		<person id="12#16" depart="59779" >
				<personTrip from="670024857" to="670024857" modes="public" />
		</person>
		<person id="12#17" depart="65200" >
				<personTrip from="670024857" to="162562779#0" modes="public" />
		</person>
		<person id="13#0" depart="289" >
				<personTrip from="162562779#0" to="42299654#0" modes="public" />
		</person>
		<person id="13#1" depart="3551" >
				<personTrip from="42299654#0" to="533269773" modes="public" />
		</person>
		<person id="13#2" depart="8065" >
				<personTrip from="533269773" to="479178957#0" modes="public" />
		</person>
		<person id="13#3" depart="10332" >
				<personTrip from="479178957#0" to="408172599" modes="public" />
		</person>
		<person id="13#4" depart="11588" >
				<personTrip from="408172599" to="164439325#0" modes="public" />
		</person>
		<person id="13#5" depart="15681" >
				<personTrip from="164439325#0" to="582546058" modes="public" />
		</person>
		<person id="13#6" depart="20206" >
				<personTrip from="582546058" to="223812322" modes="public" />
		</person>
		<person id="13#7" depart="23418" >
				<personTrip from="223812322" to="630262536" modes="public" />
		</person>
		<person id="13#8" depart="24369" >
				<personTrip from="630262536" to="479178953" modes="public" />
		</person>
		<person id="13#9" depart="27009" >
				<personTrip from="479178953" to="162562140#0" modes="public" />
		</person>
		<person id="13#10" depart="33024" >
				<personTrip from="162562140#0" to="42299170#0" modes="public" />
		</person>
		<person id="13#11" depart="36160" >
				<personTrip from="42299170#0" to="479178957#0" modes="public" />
		</person>
		<person id="13#12" depart="39281" >
				<personTrip from="479178957#0" to="670024857" modes="public" />
		</person>
		<person id="13#13" depart="42115" >
				<personTrip from="670024857" to="43662107#0" modes="public" />
		</person>
		<person id="13#14" depart="45916" >
				<personTrip from="43662107#0" to="479037390#0" modes="public" />
		</person>
		<person id="13#15" depart="46872" >
				<personTrip from="479037390#0" to="479037388#1" modes="public" />
		</person>
		<person id="13#16" depart="48680" >
				<personTrip from="479037388#1" to="479178957#0" modes="public" />
		</person>
		<person id="13#17" depart="54421" >
				<personTrip from="479178957#0" to="670024857" modes="public" />
		</person>
		<person id="13#18" depart="59136" >
				<personTrip from="670024857" to="370817780" modes="public" />
		</person>
		<person id="13#19" depart="62909" >
				<personTrip from="370817780" to="162562779#0" modes="public" />
		</person>
		<person id="14#0" depart="289" >
				<personTrip from="533269774" to="43662107#0" modes="public" />
		</person>
		<person id="14#1" depart="1434" >
				<personTrip from="43662107#0" to="93359226#0" modes="public" />
		</person>
		<person id="14#2" depart="8384" >
				<personTrip from="93359226#0" to="511852937#0" modes="public" />
		</person>
		<person id="14#3" depart="13216" >
				<personTrip from="511852937#0" to="407698812#0" modes="public" />
		</person>
		<person id="14#4" depart="16224" >
				<personTrip from="407698812#0" to="482907800" modes="public" />
		</person>
		<person id="14#5" depart="17506" >
				<personTrip from="482907800" to="393835202" modes="public" />
		</person>
		<person id="14#6" depart="20026" >
				<personTrip from="393835202" to="407698812#0" modes="public" />
		</person>
		<person id="14#7" depart="25798" >
				<personTrip from="407698812#0" to="259196946#0" modes="public" />
		</person>
		<person id="14#8" depart="27359" >
				<personTrip from="259196946#0" to="479037388#1" modes="public" />
		</person>
		<person id="14#9" depart="30859" >
				<personTrip from="479037388#1" to="293181550#0" modes="public" />
		</person>
		<person id="14#10" depart="36021" >
				<personTrip from="293181550#0" to="394662443" modes="public" />
		</person>
		<person id="14#11" depart="41993" >
				<personTrip from="394662443" to="223812322" modes="public" />
		</person>
		<person id="14#12" depart="48975" >
				<personTrip from="223812322" to="393835202" modes="public" />
		</person>
		<person id="14#13" depart="51798" >
				<personTrip from="393835202" to="479178953" modes="public" />
		</person>
		<person id="14#14" depart="58638" >
				<personTrip from="479178953" to="393835202" modes="public" />
		</person>
		<person id="14#15" depart="61857" >
				<personTrip from="393835202" to="533269774" modes="public" />
		</person>
		<person id="15#0" depart="163" >
				<personTrip from="162562779#0" to="155291168" modes="public" />
		</person>
		<person id="15#1" depart="1301" >
				<personTrip from="155291168" to="670024857" modes="public" />
		</person>
		<person id="15#2" depart="7630" >
				<personTrip from="670024857" to="162562140#0" modes="public" />
		</person>
		<person id="15#3" depart="12392" >
				<personTrip from="162562140#0" to="370817780" modes="public" />
		</person>
		<person id="15#4" depart="18680" >
				<personTrip from="370817780" to="293181550#0" modes="public" />
		</person>
		<person id="15#5" depart="24940" >
				<personTrip from="293181550#0" to="479037388#1" modes="public" />
		</person>
		<person id="15#6" depart="29525" >
				<personTrip from="479037388#1" to="227350281#0" modes="public" />
		</person>
		<person id="15#7" depart="33746" >
				<personTrip from="227350281#0" to="217840002#0" modes="public" />
		</person>
		<person id="15#8" depart="38966" >
				<personTrip from="217840002#0" to="479178957#0" modes="public" />
		</person>
		<person id="15#9" depart="45338" >
				<personTrip from="479178957#0" to="482442757" modes="public" />
		</person>
		<person id="15#10" depart="47582" >
				<personTrip from="482442757" to="162562140#0" modes="public" />
		</person>
		<person id="15#11" depart="53432" >
				<personTrip from="162562140#0" to="630262536" modes="public" />
		</person>
		<person id="15#12" depart="60279" >
				<personTrip from="630262536" to="162562779#0" modes="public" />
		</person>