<?xml version="1.0" encoding="UTF-8"?>

<!-- generated on 2023-10-30 20:32:52 by Eclipse SUMO duarouter Version 1.12.0
<configuration xmlns:xsi="http://www.w3.org/2001/XMLSchema-instance" xsi:noNamespaceSchemaLocation="http://sumo.dlr.de/xsd/duarouterConfiguration.xsd">

    <input>
        <net-file value="/home/yanncauchepin/Git/PublicProjects/EpidemicDigitalization/Code/Modules/SumoMobility/SumoFiles/network.net.xml"/>
        <additional-files value="/home/yanncauchepin/Git/PublicProjects/EpidemicDigitalization/Code/Modules/SumoMobility/SumoFiles/pt.stops.xml"/>
        <route-files value="/home/yanncauchepin/Git/PublicProjects/EpidemicDigitalization/Code/Modules/SumoMobility/SumoFiles/default.1.people.trips.xml"/>
    </input>

    <output>
        <output-file value="/home/yanncauchepin/Git/PublicProjects/EpidemicDigitalization/Code/Modules/SumoMobility/SumoFiles/default.1.people.temp.routes.xml"/>
        <alternatives-output value="/home/yanncauchepin/Git/PublicProjects/EpidemicDigitalization/Code/Modules/SumoMobility/SumoFiles/default.1.people.temp.alt.routes.xml"/>
    </output>

    <processing>
        <repair value="true"/>
        <routing-threads value="40"/>
        <ptline-routing value="true"/>
    </processing>

    <report>
        <ignore-errors value="true"/>
    </report>

</configuration>
-->

<routes xmlns:xsi="http://www.w3.org/2001/XMLSchema-instance" xsi:noNamespaceSchemaLocation="http://sumo.dlr.de/xsd/routes_file.xsd">
    <person id="1#0" depart="326.00">
        <walk edges="533269774 440739713#1 445988114#0 445988114#1 445988114#2 445988117#0 445988117#1 445988117#2 446729531#4 511852941#5 511852938#0 511852938#1 511852936 511852937#2 533269771#0 533269771#1 533269771#2 533269770#0 479178953"/>
    </person>
    <person id="1#1" depart="3889.00">
        <walk edges="479178953 533269770#0 533269770#1 42299654#0 42299654#1 379136122 379136137#22 379136137#21 379136137#20 379136137#19 379136137#18 379136137#17 379136137#16 379136137#15 394682347#8 394682347#7 -393764279#0 738204223#0 149875906#1 149875906#0 69353448 162563100 259196946#0"/>
    </person>
    <person id="1#2" depart="5727.00">
        <walk edges="259196946#0 259196946#1 259196945#0 259197368 393764334 393764331#0 393764317 394010848 738179054#0 683164663#5 393764322#2 446729534#5 446729534#4 446729534#3 446729534#2 446729534#1 43662107#0"/>
    </person>
    <person id="1#3" depart="11583.00">
        <walk edges="43662107#0 446729534#1 446729534#2 446729534#3 43662057#0 43662057#1 -393764283#0 -393764283#1 394682347#6 394682347#5 394682347#4 353046109#0"/>
    </person>
    <person id="1#4" depart="15181.00">
        <walk edges="353046109#0 394682347#4 394682347#5 394682347#6 394682347#7 394682347#8 394682347#9 394682347#10 394682347#11 394682347#12 394682347#13 394682347#14 379136137#8 379136137#7 -683185817 -162563271#1 -162563271#0 393764297#1 447857322#1 663774150#1 663774150#0 -227341950#0 -227341950#1 -227341950#2 227341950#3 227341950#4 164439334#2 694995536 393909194#0 -213910574 164439325#0"/>
    </person>
    <person id="1#5" depart="18361.00">
        <walk edges="164439325#0 -213910574 393909194#0 694995536 164439334#2 164439334#1 694995535 670024860#0 694995534#1 510864901#1 510864901#0 162562140#0"/>
    </person>
    <person id="1#6" depart="20125.00">
        <walk edges="162562140#0 162562779#0 393764274#1 43662107#0 446729534#1 446729534#2 446729534#3 43662057#0 43662057#1 393764283#0 393764283#1 393764283#2 393764279#1 393764276 69353444#1 69353444#2 -217840002#0 -407760872 293867127#1 364154086 364154085 293960055 364154087 482907802 -364154097#4 93359226#0"/>
    </person>
    <person id="1#7" depart="21829.00">
        <walk edges="93359226#0 -364154097#4 482907802 364154087 293960055 364154085 364154086 293867127#1 293867127#0 42299163#0 482442763#2 482442765#1 482442765#0 407698850#0 522219233#1 522219233#0 407698812#1 407698812#0"/>
    </person>
    <person id="1#8" depart="27597.00">
        <walk edges="407698812#0 482654641#3 482654634#1 394682347#5 394682347#6 -393764283#1 -393764283#0 43662057#1 43662057#0 446729534#3 446729534#2 446729534#1 43662107#0 393764274#1 162562779#0 162562140#0"/>
    </person>
    <person id="1#9" depart="32345.00">
        <walk edges="162562140#0 162562779#0 393764274#1 43662107#0 446729534#1 446729534#2 446729534#3 69353461#1 511155573#0 511155571#0 477115073#1 379136812#0 379136812#1 163993197 379136137#3 477115072#1 393764316#1 630262534 630262533 630262535#0"/>
    </person>
    <person id="1#10" depart="38736.00">
        <walk edges="630262535#0 630262533 630262534 393764316#1 477115072#1 379136137#3 163993197 379136812#1 379136812#0 477115073#1 511155571#0 511155573#0 69353461#1 446729534#3 446729534#2 446729534#1 43662107#0 393764274#1 162562779#0 162562140#0"/>
    </person>
    <person id="1#11" depart="43747.00">
        <walk edges="162562140#0 162562779#0 393764274#1 43662107#0 446729534#1 446729534#2 446729534#3 43662057#0 738204218#1 479037387#3 394682347#14 394682347#13 394682347#12 394682347#11 394682347#10 394682347#9 379136137#15 379136137#16 379136137#17 379136137#18 630262538 630262537 630262536"/>
    </person>
    <person id="1#12" depart="45176.00">
        <walk edges="630262536 482654641#1 482442762 482654639#3 482654639#2 482442763#0 482442763#1 482442763#2 42299163#0 293867127#0 293867127#1 364154086 364154085 293960055 364154087 482907802 364154097#3 -93359250 -303055945#0 -303055945#1 -303055946#2 482907800"/>
    </person>
    <person id="1#13" depart="48168.00">
        <walk edges="482907800 -303055946#2 -303055945#1 -303055945#0 -93359250 364154097#3 482907802 364154087 293960055 364154085 364154086 293867127#1 293867127#0 218390411#0 218390411#1 218390411#2 393764308#0 393764312 393764341#0 393764341#1 393764341#2 393764341#3 479037388#6 42299654#0"/>
    </person>
    <person id="1#14" depart="50647.00">
        <walk edges="42299654#0 479037388#6 393764341#3 393764341#2 393764341#1 393764341#0 393764312 393764308#0 218390411#2 218390411#1 218390411#0 293867127#0 293867127#1 364154086 364154085 293960055 364154087 482907802 364154097#3 -93359250 -303055945#0 -303055945#1 -303055946#2 482907800"/>
    </person>
    <person id="1#15" depart="54075.00">
        <walk edges="482907800 -303055946#2 -303055945#1 -303055945#0 -93359250 364154097#3 482907802 364154087 293960055 364154085 364154086 293867127#1 293867127#0 218390411#0 218390411#1 218390411#2 393764308#0 393764312 393764341#0 393764341#1 393764341#2 393764341#3 479037388#6 42299654#0 533269770#1 533269770#0"/>
    </person>
    <person id="2#0" depart="211.00">
        <walk edges="162562779#0 162562140#0"/>
    </person>
    <person id="2#1" depart="4159.00">
        <walk edges="162562140#0 162562779#0 393764274#1 43662107#0 446729534#1 446729534#2 446729534#3 43662057#0 43662057#1 393764283#0 393764283#1 393764283#2 393764279#1 393764276 69353444#1 69353444#2 -217840002#0 -407760872 293867127#1 364154086 364154085 293960055 364154087 482907802 -364154097#4 93359226#0"/>
    </person>
    <person id="2#2" depart="5388.00">
        <walk edges="93359226#0 -364154097#4 482907802 364154087 293960055 364154085 364154086 293867127#1 293867127#0 42299166#0 713057044 42299170#1 42299170#0"/>
    </person>
    <person id="2#3" depart="10585.00">
        <walk edges="42299170#0 479178957#5 479178957#4 479178957#3 479178957#2 479178957#1 533269770#0 533269770#1 42299654#0 42299654#1 379136122 379136137#23 379136137#24 479037388#1"/>
    </person>
    <person id="2#4" depart="12257.00">
        <walk edges="479037388#1 379136137#24 379136137#23 379136122 42299654#1 42299654#0 533269770#1 533269770#0 479178957#0 -393596508#2 -393596508#3 425555630#2"/>
    </person>
    <person id="2#5" depart="17196.00">
        <walk edges="425555630#2 -393596508#3 -393596508#2 479178957#0 533269770#0 533269770#1 42299654#0 42299654#1 379136122 379136137#23 394662443"/>
    </person>
    <person id="2#6" depart="24141.00">
        <walk edges="394662443 379136137#23 379136137#22 379136137#21 479037388#5 393764341#3 393764341#2 393764341#1 393764341#0 393764312 393764308#0 218390411#2 218390411#1 218390411#0 293867127#0 293867127#1 364154086 364154085 293960055 364154087 482907802 364154097#3 -93359250 -303055946#0 393835202"/>
    </person>
    <person id="2#7" depart="29733.00">
        <walk edges="393835202 -303055946#0 -93359250 364154097#3 482907802 364154087 293960055 364154085 364154086 293867127#1 -407760872 217840002#0"/>
    </person>
    <person id="2#8" depart="36618.00">
        <walk edges="217840002#0 69353444#2 69353444#1 -393764276 -711292223 -393764279#0 394682347#7 394682347#8 394682347#9 394682347#10 394682347#11 394682347#12 394682347#13 394682347#14 379136137#8 683185827 683185820 683185824#0"/>
    </person>
    <person id="2#9" depart="37925.00">
        <walk edges="683185824#0 683185820 683185827 379136137#7 379136137#6 477115075#6 379136137#4 738165000 393764316#2 393764316#1 630262534 630262533 630262535#0 738164999#4 393764341#2 482442872#2 -482442759#1 -482442759#2 393764308#2 631891463 479178957#4 482442765#5 393854027#0"/>
    </person>
    <person id="2#10" depart="41143.00">
        <walk edges="393854027#0 482442765#5 479178957#4 479178957#3 479178957#2 479178957#1 533269770#0 533269771#2 533269771#1 -227338318#0 393835185 663774150#0 663774150#1 663774150#2 338332423#0 360827911#1 360827911#2 360827911#3 -338624770#4 575224402#0 575224400#0 575224400#1 575224401"/>
    </person>
    <person id="2#11" depart="43292.00">
        <walk edges="575224401 575224400#1 575224400#0 575224402#0 -338624770#4 360827911#3 360827911#2 360827911#1 338332423#0 663774150#2 663774150#1 663774150#0 393835185 -227338318#0 533269771#1 533269771#2 533269770#0"/>
    </person>
    <person id="2#12" depart="46772.00">
        <walk edges="533269770#0 533269771#2 533269771#1 -227338318#0 393835185 393764297#3 393764297#2 393764297#1 69353461#1 446729534#3 446729534#2 446729534#1 43662107#0 393764274#1 162562779#0 162562140#0"/>
    </person>
    <person id="2#13" depart="50858.00">
        <walk edges="162562140#0 162562779#0 393764274#1 43662107#0 446729534#1 446729534#2 446729534#3 43662057#0 43662057#1 393764283#0 393764283#1 393764283#2 393764279#1 393764276 69353444#1 -408171130#0 293181550#0"/>
    </person>
    <person id="2#14" depart="52595.00">
        <walk edges="293181550#0 -408171130#0 69353444#1 393764276 393764279#1 738204223#0 227350281#3 227350281#0"/>
    </person>
    <person id="2#15" depart="54736.00">
        <walk edges="227350281#0 227350281#3 738204223#0 738204223#1 482654634#1 482654641#3 482654641#2 482654641#1 482442760#1 482442760#0 393764341#0"/>
    </person>
    <person id="2#16" depart="56584.00">
        <walk edges="393764341#0 393764341#1 393764341#2 393764341#3 479037388#6 42299654#0 533269770#1 533269770#0 479178957#0"/>
    </person>
    <person id="2#17" depart="59429.00">
        <walk edges="479178957#0"/>
    </person>
    <person id="1#16" depart="60661.00">
        <walk edges="533269770#0 533269771#2 533269771#1 533269771#0 511852937#2 511852936 511852938#1 511852938#0 511852941#5 446729531#4 445988117#2 445988117#1 445988117#0 445988114#2 445988114#1 445988114#0 440739713#1 533269774"/>
    </person>
    <person id="3#0" depart="171.00">
        <walk edges="533269774 440739713#1 445988114#0 445988114#1 445988118#1 227341950#0 393596509 -363316832 42299654#0 479037388#6 393764341#3 393764341#2 393764341#1 393764341#0 393764312 393764308#0 218390411#2 218390411#1 218390411#0 69353444#3 -217840002#0 408172599"/>
    </person>
    <person id="3#1" depart="3692.00">
        <walk edges="408172599 -408171130#1 -408171130#0 69353444#1 393764276 393764279#1 393764283#2 393764283#1 393764283#0 43662057#1 43662057#0 446729534#3 446729534#2 446729534#1 43662107#0 370817780"/>
    </person>
    <person id="3#2" depart="8398.00">
        <walk edges="370817780 43662107#0 446729534#1 446729534#2 446729534#3 69353461#1 393764297#1 393764297#2 393764297#3 393835185 -227338318#0 533269771#1 533269771#2 533269770#0 479178953"/>
    </person>
    <person id="3#3" depart="12955.00">
        <walk edges="479178953 533269770#0 533269771#2 533269771#1 533269771#0 511852937#2 511852936 511852938#1 511852938#0 511852941#5 446729531#4 445988117#2 445988117#1 445988117#0 445988114#2 445988114#1 445988114#0 440739713#1 533269774"/>
    </person>
    <person id="3#4" depart="19954.00">
        <walk edges="533269774 440739713#1 440739713#0 -227341950#3 -227341950#4 164439334#1 694995535 670024860#0 694995534#1 155295647#0 155295647#1 393764274#1 370817780"/>
    </person>
    <person id="3#5" depart="20966.00">
        <walk edges="370817780 43662107#0 446729534#1 446729534#2 446729534#3 69353461#1 393764297#1 393764297#2 393764297#3 393835185 -227338318#0 533269771#1 533269771#2 533269770#0 479178957#1 479178957#2 479178957#3 479178957#4 482442765#5 393854027#0"/>
    </person>
    <person id="3#6" depart="24610.00">
        <walk edges="393854027#0 42299170#0 42299170#1 713057044 42299166#0 293867127#0 293867127#1 364154086 364154085 293960055 364154087 482907802 -364154097#4 93359226#0"/>
    </person>
    <person id="3#7" depart="26271.00">
        <walk edges="93359226#0 -364154097#4 482907802 364154087 293960055 364154085 364154086 293867127#1 293867127#0 218390411#0 218390411#1 218390411#2 393764308#0 393764312 393764341#0 393764341#1 393764341#2 393764341#3 479037388#6 42299654#0 -363316832 393596509 227341950#0 445988118#1 445988114#1 445988114#0 440739713#1 440739713#2 533269773"/>
    </person>
    <person id="3#8" depart="27792.00">
        <walk edges="533269773 440739713#2 440739713#1 445988114#0 445988114#1 445988118#1 227341950#0 393596509 -363316832 42299654#0 479037388#6 393764341#3 393764341#2 393764341#1 393764341#0 393764312 393764308#0 218390411#2 218390411#1 218390411#0 69353444#3 69353444#2 69353444#1 -227335560#0 407697531#1 582546057 582546059#0"/>
    </person>
    <person id="3#9" depart="33492.00">
        <walk edges="582546059#0 582546057 407697531#1 -227335560#0 69353444#1 69353444#2 69353444#3 42299166#0 713057044 42299170#1 479178957#5 479178957#4 479178957#3 479178957#2 353178841#1 353178841#0"/>
    </person>
    <person id="3#10" depart="39644.00">
        <walk edges="353178841#0 353178841#1 479178957#1 533269770#0 533269770#1 42299654#0 42299654#1 379136122 379136137#23 379136137#24 379136137#25 477115075#1 379136137#1 477115075#3 379136137#3 163993197 379136812#1 379136812#0"/>
    </person>
    <person id="3#11" depart="42332.00">
        <walk edges="379136812#0 379136812#1 163993197 379136137#3 477115072#1 393764316#1 630262534 630262533 630262535#0 738164999#4 393764341#2 393764341#1 393764341#0"/>
    </person>
    <person id="3#12" depart="43963.00">
        <walk edges="393764341#0 393764341#1 393764341#2 738164999#4 630262535#0 630262533 630262534 393764316#1 477115072#1 379136137#3 163993197 379136812#1 379136812#0 477115073#1 511155571#0 511155573#0 69353461#1 446729534#3 446729534#2 446729534#1 43662107#0"/>
    </person>
    <person id="3#13" depart="48032.00">
        <walk edges="43662107#0 446729534#1 446729534#2 446729534#3 69353461#1 393764297#1 393764297#2 393764297#3 393835185 -227338318#0 533269771#1 -393596508#1 479178957#0"/>
    </person>
    <person id="3#14" depart="52613.00">
        <walk edges="479178957#0"/>
    </person>
    <person id="3#15" depart="58656.00">
        <walk edges="479178957#0 533269770#0 533269770#1 42299654#0 479037388#6 393764341#3 393764341#2 393764341#1 393764341#0 393764312 393764308#0 218390411#2 218390411#1 218390411#0 293867127#0 293867127#1 364154086 364154085 293960055 364154087 482907802 364154097#3 -93359250 -303055946#0 393835202"/>
    </person>
    <person id="2#18" depart="62047.00">
        <walk edges="479178957#0 -393596508#1 533269771#1 -227338318#0 393835185 393764297#3 393764297#2 393764297#1 69353461#1 446729534#3 446729534#2 446729534#1 43662107#0 393764274#1 162562779#0"/>
    </person>
    <person id="29#0" depart="102.00">
        <walk edges="575224401 575224400#1 575224400#0 575224402#0 -338624770#4 360827911#3 360827911#2 360827911#1 338332423#0 663774150#2 663774150#1 663774150#0 393835185 -227338318#0 533269771#1 533269771#2 533269770#0 479178957#1 353178841#1 353178841#0"/>
    </person>
    <person id="23#0" depart="107.00">
        <walk edges="533269774 440739713#1 445988114#0 445988114#1 445988114#2 445988117#0 445988117#1 445988117#2 446729531#4 511852941#5 511852938#0 511852938#1 511852936 511852937#2 533269771#0 533269771#1 533269771#2 533269770#0"/>
    </person>
    <person id="8#0" depart="113.00">
        <walk edges="533269774 440739713#1 445988114#0 445988114#1 445988118#1 227341950#0 663774150#0 663774150#1 663774150#2 338332423#0 338332424#9 338332424#8 393764306"/>
    </person>
    <person id="32#0" depart="125.00">
        <walk edges="575224401 259192793#1 259192793#0 162562779#2 162562779#1 162562779#0 162562140#0"/>
    </person>
    <person id="30#0" depart="141.00">
        <walk edges="533269774 440739713#1 445988114#0 445988114#1 445988118#1 227341950#0 393764297#3 393764297#2 393764297#1 69353461#1 -43662057#0 -43662057#1 393764322#1 393764322#2 683164663#5 738179054#0 394010848 393764317 393764331#0 393764334 259197368 259196945#0 259196946#1 259196946#0"/>
    </person>
    <person id="19#0" depart="148.00">
        <walk edges="533269774 440739713#1 445988114#0 445988114#1 445988118#1 227341950#0 393596509 -363316832 42299654#0 479037388#6 393764341#3 393764341#2 393764341#1 393764341#0 393764312 393764308#0 218390411#2 218390411#1 218390411#0 69353444#3 69353444#2 69353444#1 -227335560#0 -42303578#0 -226056691#2 536208570"/>
    </person>
    <person id="33#0" depart="158.00">
        <walk edges="162562779#0 155295647#1 155295647#0 694995534#1 670024860#0 694995535 164439334#1 164439334#2 694995536 393909194#0 -213910574 164439325#0"/>
    </person>
    <person id="25#0" depart="160.00">
        <walk edges="162562779#0 162562140#0"/>
    </person>
    <person id="14#0" depart="172.00">
        <walk edges="575224401 338332424#3 43662107#2 393764288#0 393764288#1 43662057#0 43662057#1 -393764283#0 -393764283#1 394682347#6 394682347#5 482654634#1 482654641#3 407698812#0 407698812#1 522219233#0 522219233#1 407698850#0 482442765#0"/>
    </person>
    <person id="5#0" depart="175.00">
        <walk edges="533269774 440739713#1 445988114#0 445988114#1 445988114#2 445988117#0 445988117#1 445988117#2 446729531#4 511852941#5 511852938#0 511852938#1 511852936 511852937#2 533269771#0 533269771#1 533269771#2 533269770#0 479178957#1 353178841#1 353178841#0"/>
    </person>
    <person id="24#0" depart="176.00">
        <walk edges="162562779#0 155295647#1 155295647#0 393764290#1"/>
    </person>
    <person id="27#0" depart="181.00">
        <walk edges="533269774 440739713#1 445988114#0 445988114#1 445988118#1 227341950#0 393596509 -363316832 42299654#0 42299654#1 379136122 379136137#22 379136137#21 379136137#20 379136137#19 630262538 630262537 630262536"/>
    </person>
    <person id="34#0" depart="183.00">
        <walk edges="533269774 440739713#1 445988114#0 445988114#1 445988118#1 227341950#0 393596509 -363316832 42299654#0 479037388#6 393764341#3 393764341#2 393764341#1 393764341#0 393764312 393764308#0 218390411#2 218390411#1 218390411#0 69353444#3 69353444#2 69353444#1 738219281"/>
    </person>
    <person id="13#0" depart="190.00">
        <walk edges="162562779#0 393764274#1 43662107#0 446729534#1 446729534#2 446729534#3 69353461#1 393764297#1 393764297#2 393764297#3 393835185 -227338318#0 533269771#1 533269771#2 533269770#0 479178957#1 479178957#2 479178957#3 479178957#4 479178957#5 42299170#0 223812322"/>
    </person>
    <person id="22#0" depart="202.00">
        <walk edges="575224401 338332424#3 43662107#2 393764288#0 393764288#1 43662057#0 43662057#1 393764283#0 393764283#1 393764283#2 393764279#1 393764276 227335560#0 407697531#1 582546057 582546059#0"/>
    </person>
    <person id="17#0" depart="205.00">
        <walk edges="575224401 338332424#3 43662107#2 393764288#0 393764288#1 43662057#0 43662057#1 393764283#0 393764283#1 393764283#2 393764279#1 393764276 69353444#1 -408171130#0 293181550#0"/>
    </person>
    <person id="20#0" depart="208.00">
        <walk edges="533269774 440739713#1 445988114#0 445988114#1 445988118#1 227341950#0 393764297#3 393764297#2 393764297#1 69353461#1 -43662057#0 -43662057#1 393764322#1 393764322#2 683164663#5 738179054#0 394010848 393764317 393764331#0 393764334 259197368 259196945#0 259196946#1 259196946#0"/>
    </person>
    <person id="35#0" depart="211.00">
        <walk edges="533269774 440739713#1 445988114#0 445988114#1 445988118#1 227341950#0 393596509 -363316832 42299654#0 479037388#6 393764341#3 393764341#2 393764341#1 393764341#0 393764312 393764308#0 218390411#2 218390411#1 218390411#0 293867127#0 293867127#1 364154086 364154085 293960055 364154087 482907802 364154097#3 -93359250 -303055946#0 393835202"/>
    </person>
    <person id="31#0" depart="213.00">
        <walk edges="575224401 575224400#1 575224400#0 575224402#0 -338624770#4 360827911#3 360827911#2 360827911#1 338332423#0 663774150#2 663774150#1 663774150#0 393835185 -227338318#0 533269771#1 533269771#2 533269770#0 479178957#1 479178957#2 479178957#3 479178957#4 482442765#5 393854027#0"/>
    </person>
    <person id="18#0" depart="214.00">
        <walk edges="533269774 440739713#1 445988114#0 445988114#1 445988118#1 227341950#0 393596509 -363316832 42299654#0 42299654#1 379136122 379136137#23 379136137#24 479037388#1"/>
    </person>
    <person id="4#0" depart="232.00">
        <walk edges="162562779#0 393764274#1 43662107#0 446729534#1 446729534#2 446729534#3 43662057#0 43662057#1 393764283#0 393764283#1 393764283#2 393764279#1 393764276 69353444#1 69353444#2 -217840002#0 -407760872 293867127#1 364154086 364154085 293960055 364154087 482907802 364154097#3 -93359250 -303055946#0 393835202"/>
    </person>
    <person id="21#0" depart="258.00">
        <walk edges="575224401 575224400#1 575224400#0 575224402#0 -338624770#4 360827911#3 360827911#2 360827911#1 338332423#0 663774150#2 447857322#1 447857322#2 477115073#0 477115073#1 379136812#0 379136812#1 163993197 379136137#3 477115072#1 393764316#1 630262534 630262533 630262535#0 738164999#4 393764341#2 393764341#1 393764341#0 393764312 393764308#0 218390411#2 218390411#1 218390411#0 293867127#0 293867127#1 364154086 364154085 293960055 364154087 482907802 364154097#3 -93359250 -303055946#0 393835202"/>
    </person>
    <person id="15#0" depart="274.00">
        <walk edges="533269774 440739713#1 445988114#0 445988114#1 445988114#2 445988117#0 445988117#1 445988117#2 446729531#4 511852941#5 511852938#0 511852938#1 511852936 511852937#2 533269771#0 533269771#1 533269771#2 533269770#0 479178957#1 479178957#2 479178957#3 479178957#4 479178957#5 42299170#0 223812322"/>
    </person>
    <person id="9#0" depart="275.00">
        <walk edges="533269774 440739713#1 445988114#0 445988114#1 445988114#2 445988117#0 445988117#1 445988117#2 446729531#4 511852941#5 511852938#0 511852938#1 511852936 511852937#2 533269771#0 533269771#1 533269771#2 533269770#0 479178953"/>
    </person>
    <person id="28#0" depart="295.00">
        <walk edges="533269774 440739713#1 445988114#0 445988114#1 445988114#2 445988117#0 445988117#1 445988117#2 446729531#4 511852941#5 511852938#0 511852938#1 511852936 511852937#2 533269771#0 533269771#1 533269771#2 533269770#0 479178957#1 479178957#2 479178957#3 479178957#4 479178957#5 42299170#0"/>
    </person>
    <person id="26#0" depart="301.00">
        <walk edges="533269774 440739713#1 445988114#0 445988114#1 445988118#1 227341950#0 663774150#0 663774150#1 663774150#2 338332423#0 338332424#9 575224405#0 393764293#1 -42299040#1 738204219"/>
    </person>
    <person id="10#0" depart="333.00">
        <walk edges="162562779#0 393764274#1 43662107#0 446729534#1 446729534#2 446729534#3 446729534#4 446729534#5 393764322#2 738179054#1 738179054#2 738179058 683164658 683164661 393764350#4 394010856"/>
    </person>
    <person id="11#0" depart="334.00">
        <walk edges="162562779#0 393764274#1 43662107#0 446729534#1 446729534#2 446729534#3 69353461#1 162563271#0 162563271#1 683185817"/>
    </person>
    <person id="6#0" depart="340.00">
        <walk edges="533269774 440739713#1 445988114#0 445988114#1 445988118#1 227341950#0 393764297#3 393764297#2 393764297#1 -162563271#0 -162563271#1 -683185817 379136137#7 379136137#8 394682347#14 394682347#13 394682347#12 394682347#11 394682347#10 394682347#9 394682347#8 394682347#7 -393764279#0 738204223#0 227350281#3 227350281#0"/>
    </person>
    <person id="16#0" depart="372.00">
        <walk edges="533269774 440739713#1 440739713#0 -227341950#3 -227341950#4 164439334#1 694995535 670024860#0 694995534#1 155295647#0 155295647#1 393764274#1 43662107#0"/>
    </person>
    <person id="12#0" depart="383.00">
        <walk edges="533269774 440739713#1 445988114#0 445988114#1 445988114#2 445988117#0 445988117#1 445988117#2 446729531#4 511852941#5 511852938#0 511852938#1 511852936 511852937#2 533269771#0 533269771#1 -393596508#1 479178957#0"/>
    </person>
    <person id="7#0" depart="390.00">
        <walk edges="533269774 440739713#1 440739713#0 -227341950#3 -227341950#4 164439334#1 694995535 670024860#0 694995534#1 393764290#1"/>
    </person>
    <person id="19#1" depart="1167.00">
        <walk edges="536208570 -226056691#2 -42303578#0 407697531#1 582546057 582546059#0"/>
    </person>
    <person id="17#1" depart="1550.00">
        <walk edges="293181550#0 -408171130#1 408172599"/>
    </person>
    <person id="16#1" depart="1668.00">
        <walk edges="43662107#0 446729534#1 446729534#2 446729534#3 43662057#0 43662057#1 393764283#0 393764283#1 393764283#2 393764279#1 393764276 69353444#1 -408171130#0 -408171130#1 408172599"/>
    </person>
    <person id="8#1" depart="2570.00">
        <walk edges="393764306 163993620#1 -393764288#0 393764288#1 43662057#0 43662057#1 393764283#0 393764283#1 393764283#2 393764279#1 393764276 227335560#0 -42303578#0 -226056691#2 536208570"/>
    </person>
    <person id="23#1" depart="2819.00">
        <walk edges="533269770#0 533269770#1 42299654#0 42299654#1 379136122 379136137#22 379136137#21 379136137#20 379136137#19 630262538 630262537 630262536"/>
    </person>
    <person id="32#1" depart="2984.00">
        <walk edges="162562140#0 162562779#0 393764274#1 43662107#0 446729534#1 446729534#2 446729534#3 69353461#1 393764297#1 393764297#2 393764297#3 393835185 -227338318#0 533269771#1 533269771#2 533269770#0 479178957#1 479178957#2 479178957#3 479178957#4 479178957#5 42299170#0"/>
    </person>
    <person id="24#1" depart="3146.00">
        <walk edges="393764290#1 694995534#1 670024860#0 694995535 164439334#1 227341950#4 227341950#3 -440739713#0 -440739713#1 -440739713#2 -440739713#3 533269775"/>
    </person>
    <person id="30#1" depart="3247.00">
        <walk edges="259196946#0 162563100 69353448 149875906#0 149875906#1 738204223#0 393764279#1 -393764276 42299163#3 42299163#2 42299163#1 42299163#0 42299166#0 713057044 42299170#1 42299170#0 223812322"/>
    </person>
    <person id="5#1" depart="3506.00">
        <walk edges="353178841#0 353178841#1 479178957#2 482442872#0 482442872#1 482442872#2 738164999#1 738164999#2 482442760#1 482654641#1 482654641#2 482654641#3 482654634#1 394682347#5 394682347#6 -393764283#1 -393764283#0 393764322#1 393764322#2 738179054#1 738179054#2 738179058 683164658 683164661 393764350#4 394010856"/>
    </person>
    <person id="12#1" depart="3686.00">
        <walk edges="479178957#0 533269770#0 533269770#1 42299654#0 42299654#1 379136122 379136137#23 379136137#24 379136137#25 379136137#0 394662440"/>
    </person>
    <person id="14#1" depart="3813.00">
        <walk edges="482442765#0 407698850#0 522219233#1 522219233#0 407698812#1 407698812#0 482654641#3 482654634#1 394682347#5 394682347#6 -393764283#1 -393764283#0 43662057#1 43662057#0 446729534#3 446729534#2 446729534#1 43662107#0 393764274#1 162562779#0"/>
    </person>
    <person id="7#1" depart="4109.00">
        <walk edges="393764290#1 408845038#2 408845038#1 360827911#3 360827911#2 360827911#1 338332423#0 663774150#2 447857322#1 447857322#2 477115073#0 477115073#1 379136812#0 379136812#1 163993197 379136137#3 477115072#1 393764316#1 630262534 630262533 630262535#0 738164999#4 393764341#2 393764341#1 393764341#0 393764312 393764308#0 218390411#2 218390411#1 218390411#0 293867127#0 293867127#1 364154086 364154085 293960055 364154087 482907802 364154097#3 -364154097#2 303055947"/>
    </person>
    <person id="30#2" depart="4161.00">
        <walk edges="223812322 42299170#0 479178957#5 479178957#4 479178957#3 479178957#2 479178957#1 533269770#0 533269771#2 533269771#1 -227338318#0 393835185 663774150#0 663774150#1 663774150#2 338332423#0 360827911#1 360827911#2 360827911#3 408845038#1 408845038#2 393764290#1"/>
    </person>
    <person id="34#1" depart="4549.00">
        <walk edges="738219281 293181550#0 -408171130#1 -408172599 -407760872 293867127#1 364154086 364154085 293960055 364154087 482907802 364154097#3 -93359250 -303055945#0 -303055945#1 -303055946#2 482907800"/>
    </person>
    <person id="11#1" depart="4560.00">
        <walk edges="683185817 379136137#6 477115075#6 379136137#4 477115075#4 379136137#2 477115075#2 379136137#0 379136137#25 479037388#1"/>
    </person>
    <person id="21#1" depart="4560.00">
        <walk edges="393835202 -303055946#0 -93359250 364154097#3 482907802 364154087 293960055 364154085 364154086 293867127#1 -407760872 -217840002#0 69353444#2 69353444#1 393764276 393764279#1 738204223#0 149875906#1 683164667 683164659 738179054#10 683164663#2 738179055#0 683164657 394010850#2 393764350#2 393764350#3 394010856"/>
    </person>
    <person id="23#2" depart="4969.00">