<?xml version="1.0" encoding="UTF-8"?>
<configuration xmlns:xsi="http://www.w3.org/2001/XMLSchema-instance" xsi:noNamespaceSchemaLocation="http://sumo.dlr.de/xsd/polyconvertConfiguration.xsd">
    <input>
        <net-file value="network.net.xml"/>
        <osm-files value="/home/yanncauchepin/Git/PublicProjects/EpidemicDigitalization/Code/Modules/OSM/belval.osm.xml"/>
        <osm.keep-full-type value="true"/>
        <shapefile.add-param value="true"/>
        <type-file value="/home/yanncauchepin/Git/PublicProjects/EpidemicDigitalization/Code/Modules/SumoMobility/SumoFiles/polygon.types.xml"/>
    </input>
    <output>
        <output-file value="/home/yanncauchepin/Git/PublicProjects/EpidemicDigitalization/Code/Modules/SumoMobility/SumoFiles/polygons.poly.xml"/>
    </output>
    <report>
        <verbose value="true"/>
    </report>
</configuration>
        