<?xml version="1.0" encoding="UTF-8"?>

<!-- generated on Mon Mar 22 13:06:25 2021 by Eclipse SUMO duarouter Version 1.8.0
<configuration xmlns:xsi="http://www.w3.org/2001/XMLSchema-instance" xsi:noNamespaceSchemaLocation="http://sumo.dlr.de/xsd/duarouterConfiguration.xsd">

    <input>
        <net-file value="/home/cauchepin/DRLC/LuSTScenario-master/scenario/2021-03-22-13-06-13/osm.net.xml"/>
        <additional-files value="/home/cauchepin/DRLC/LuSTScenario-master/scenario/2021-03-22-13-06-13/osm_stops.add.xml,/home/cauchepin/DRLC/LuSTScenario-master/scenario/2021-03-22-13-06-13/osm_pt.rou.xml"/>
        <route-files value="/home/cauchepin/DRLC/LuSTScenario-master/scenario/2021-03-22-13-06-13/osm.pedestrian.trips.xml"/>
    </input>

    <output>
        <output-file value="/home/cauchepin/DRLC/LuSTScenario-master/scenario/2021-03-22-13-06-13/osm.pedestrian.rou.xml"/>
        <alternatives-output value="/home/cauchepin/DRLC/LuSTScenario-master/scenario/2021-03-22-13-06-13/osm.pedestrian.rou.alt.xml"/>
    </output>

    <time>
        <begin value="0"/>
        <end value="3600"/>
    </time>

    <report>
        <no-warnings value="true"/>
        <ignore-errors value="true"/>
        <no-step-log value="true"/>
    </report>

</configuration>
-->

<routes xmlns:xsi="http://www.w3.org/2001/XMLSchema-instance" xsi:noNamespaceSchemaLocation="http://sumo.dlr.de/xsd/routes_file.xsd">
    <vType id="ped_pedestrian" vClass="pedestrian"/>
    <person id="ped0" type="ped_pedestrian" depart="0.00">
        <walk edges="42299654#0 363316832 393596509 227341950#0 227341950#1 227341950#2 227341950#3 227341950#4 164439334#2 694995536 393909194#0 393909194#1 164439327#1 785709733#0 511339155#1 511339155#0 544408156#0 -223581247#4"/>
    </person>
    <person id="ped1" type="ped_pedestrian" depart="2.63">
        <walk edges="150258989#5 150258989#4 150258989#3 150258989#2 150258989#0 96202384 388006867#1" busStop="4464473490"/> <!-- Esch, Tramschapp -->
        <ride busStop="-6212933651" lines="4:1" intended="pt_bus_4:1.0" depart="632.00"/> <!-- Esch/Alzette, Porte des Sciences -->
        <walk edges="-227338318#0 393835185 -227341950#0 -227341950#1 -227341950#2 -227341950#3 -227341950#4 684196244 -684134539"/>
    </person>
    <person id="ped2" type="ped_pedestrian" depart="5.25">
        <walk edges="479037376#8 -25691739#1 -164439328 -753393308 511339155#1 785709733#0 164439327#1 393909194#1 393909194#0 694995536 164439334#2 164439334#1 694995535 394660927#4 575224397#0 -408845038#2 -155295647#0 -393764274#0 -393764274#1 -43662107#0 446729534#1"/>
    </person>
    <person id="ped3" type="ped_pedestrian" depart="7.88">
        <walk edges="683164661 393764350#5 393764350#6 683185824#1 683185820 683185827 379136137#7 379136137#6 477115075#6 379136137#4 477115075#4 379136137#2 477115075#2 379136137#0 379136137#25 379136137#24 379136137#23 379136122 42299654#1 42299654#0 533269770#1 533269770#0 479178957#0 393596508#2 425555630#2 227337561 426538581#0 426538581#1 426538581#2 423133516 423133512 28246185 194714719 440710412#0 -393907872#1 468755769#0 -468755769#1 393248506#0 377625002#1 -377625002#1"/>
    </person>
    <person id="ped4" type="ped_pedestrian" depart="10.50">
        <walk edges="361570991#2 -383805347#2 383805347#3 -672774776#0 642213925#1 96260468#1 777938862 765046471#0 259196943 259196938#1 162563100 69353448 149875906#0 149875906#1 738204223#0 -393764279#1" busStop="-4097218576"/> <!-- Esch, Avenue du Rock’n’Roll -->
        <ride busStop="4408239878" lines="7:1" intended="pt_bus_7:1.0" depart="468.00"/> <!-- Esch/Alzette, Porte de France -->
        <walk edges="393764297#1" busStop="1625279566"/> <!-- Esch/Alzette, Porte de France -->
        <ride busStop="6212933652" lines="306:0" intended="pt_bus_306:0.0" depart="609.00"/> <!-- Esch/Alzette, Porte des Sciences -->
        <walk edges="393596508#0" busStop="6212933653"/> <!-- Esch/Alzette, Porte des Sciences -->
        <ride busStop="1115018384" lines="7:1" intended="pt_bus_7:1.0" depart="818.00"/> <!-- Esch, Raemerich -->
        <walk edges="366838964 388280785 28242822 393248498#3 385080086#0 218390407 -371436540#0 -371436540#1 -364154091 -93359213#5 93359213#4 223813239 -223813245#1"/>
    </person>
    <person id="ped5" type="ped_pedestrian" depart="13.13">
        <walk edges="-672774776#0 383805347#3 -383805347#2 383805347#1"/>
    </person>
    <person id="ped6" type="ped_pedestrian" depart="15.76">
        <walk edges="-223581247#8 223581247#7 223581247#6 223581247#5 -25691739#1 -164439328 -753393308 511339155#1 785709733#0 164439327#1 393909194#1 393909194#0 694995536 164439334#2 164439334#1 694995535 394660927#4 394660927#3 -684165134 552900619#2 -552900619#3"/>
    </person>
    <person id="ped7" type="ped_pedestrian" depart="18.38">
        <walk edges="43661121#8 785709733#1 511339155#1 -753393308 -164439328 -25691739#1 223581247#5 223581247#6" busStop="1115018462"/> <!-- Belvaux, Brill -->
        <ride busStop="1115018384" lines="325:0" intended="pt_bus_325:0.0" depart="406.00"/> <!-- Esch, Raemerich -->
        <walk edges="366838964 388280785 377213302 393248447 377213300 393248498#4"/>
    </person>
    <person id="ped8" type="ped_pedestrian" depart="21.01">
        <walk edges="-684128946 -694992983 479118879#5 753387539#3 479118879#3 479118879#2 479118879#1 479118880 479118881#3 155291168#1 155291168#2 155291168#3 155291168#4 -259193957 259195331 -213910574 393909194#0 694995536 164439334#2 227341950#4 227341950#3 227341950#2 227341950#1 445988118#1 445988114#2 445988114#3 445988114#4 445988114#5 445988114#6 69353439#1 445988116#0 479037385#1 69353459#0 425555627#1 425555627#0 467392235#1 393878671#1"/>
    </person>
    <person id="ped9" type="ped_pedestrian" depart="23.63">
        <walk edges="511852935#1 511852934#0 511852934#1 511852937#3 533269771#0 533269771#1 393596508#0" busStop="6212933653"/> <!-- Esch/Alzette, Porte des Sciences -->
        <ride busStop="1631828668" lines="4:0" intended="pt_bus_4:0.0" depart="536.00"/> <!-- Esch, Rue des Tramways -->
        <walk edges="150258989#5 150258992#0 -150258992#1"/>
    </person>
    <person id="ped10" type="ped_pedestrian" depart="26.26">
        <walk edges="511339155#0 511339155#1 785709733#0 478909403 164439325#1 259195331 -259193957 213851821#2 213851821#1 213851821#0 155309942#0 155309942#1 155296547#1 -378064615#5 641307275 378064609#1 500886604#4 500886604#3 500886604#2 500886604#1 500886604#0 360815375#9 360815375#8 360815375#7 360815375#6 360815375#5 360815375#4 465836314"/>
    </person>
    <person id="ped11" type="ped_pedestrian" depart="28.89">
        <walk edges="223813240 -371436540#0 -69353467 385525540 385381755 385078971#1 96198635 -96198629#0 96198633#1 313843749#1 375371401 440710412#1 -393907872#1 -393907872#2 -393907872#3 -393907872#4 387488097#1 387488097#0 -393907870#1 393907857 -164439328 -753393308 511339155#1 785709733#1 -43661121#9"/>
    </person>
    <person id="ped12" type="ped_pedestrian" depart="31.51">
        <walk edges="753485007 753485006 -293306711#0 -377103315 69353456#1 25691739#1 223581247#4"/>
    </person>
    <person id="ped13" type="ped_pedestrian" depart="34.14">
        <walk edges="-383805343 468755761 -626683099#3 106888004#1 -106888004#0 393764290#1 408845038#2 408845038#1 -408845038#0" busStop="-2360364949"/> <!-- Belvaux, Um Bedding -->
        <ride busStop="4408239878" lines="209:1" intended="pt_bus_209:1.0" depart="833.00"/> <!-- Esch/Alzette, Porte de France -->
        <walk edges="393764297#1" busStop="1625279566"/> <!-- Esch/Alzette, Porte de France -->
        <ride busStop="6212933652" lines="4:0" intended="pt_bus_4:0.1" depart="997.00"/> <!-- Esch/Alzette, Porte des Sciences -->
        <walk edges="393596508#0" busStop="6212933653"/> <!-- Esch/Alzette, Porte des Sciences -->
        <ride busStop="1115018384" lines="4:0" intended="pt_bus_4:0.1" depart="1136.00"/> <!-- Esch, Raemerich -->
        <walk edges="366838964 388280785 377213302 23888931 388280781 385079851 152101003 594713491 25210189#3 384709893#0 -384709893#1 -384709893#2"/>
    </person>
    <person id="ped14" type="ped_pedestrian" depart="36.76">
        <walk edges="562326418 174122168#1 821222570#1 821222574 174121752 363315172 -378064615#3 -378064615#2 -684130273#1 -753387551 753387553#0 753387552 162562141 377103343#1 -394648820#1 -394648820#0 394648820#0"/>
    </person>
    <person id="ped15" type="ped_pedestrian" depart="39.39">
        <walk edges="511852932 511852941#3 570972281#0 570972281#1 -69357521#3 -479037374#1 479037374#0"/>
    </person>
    <person id="ped16" type="ped_pedestrian" depart="42.01">
        <walk edges="38903574#0 -38903574#1 -38903574#2 -38903574#3 -38903574#4 -38903574#5 25210189#0" busStop="8528041097"/> <!-- Esch, Lycée Guillaume Kroll -->
        <ride busStop="4721178055" lines="308:0" intended="pt_bus_308:0.1" depart="699.00"/> <!-- Belvaux, Lycée Bel-Val -->
        <walk edges="360815375#10 500886604#0 500886604#1 500886604#2 500886604#3 500886604#4 378064609#1 641307275 -378064615#5 155296547#1 155296547#0 174121752 821222574 821222570#1"/>
    </person>
    <person id="ped17" type="ped_pedestrian" depart="44.64">
        <walk edges="26149326 -393249358#1 -393249358#0 393248497#2 375371401 440710412#1 440710412#0 194714719 28246185 423133512 188215406 208412892#5 393613650#0"/>
    </person>
    <person id="ped18" type="ped_pedestrian" depart="47.27">
        <walk edges="533269770#1 42299654#0 42299654#1 379136122 379136137#22 379136137#21 379136137#20 379136137#19 379136137#18 394671362#1 394671362#2"/>
    </person>
    <person id="ped19" type="ped_pedestrian" depart="49.89">
        <walk edges="575224402#0 -338624770#4 408845038#0 360827911#3 360827911#2 360827911#1 393764297#1" busStop="1625279566"/> <!-- Esch/Alzette, Porte de France -->
        <ride busStop="6212933652" lines="4:0" intended="pt_bus_4:0.0" depart="397.00"/> <!-- Esch/Alzette, Porte des Sciences -->
        <walk edges="393596508#0 533269771#2 533269770#0 479178957#1 353178841#1 353178841#0 353046113 -479037395 393764343#13"/>
    </person>
    <person id="ped20" type="ped_pedestrian" depart="52.52">
        <walk edges="476707103#0 84526771#1 84526771#0 440710544 393878673#1 -468755769#3 479037379#2 251421193#0 479037379#0 479037380#0 -393249358#0 -393249358#1 -170012501#0 -170012501#1 -26149300#0"/>
    </person>
    <person id="ped21" type="ped_pedestrian" depart="55.14">
        <walk edges="-69353456#3 377283173 377103316#0 -293306710 69353456#1 -164439328 -753393308 511339155#1 785709733#0 478909403 164439325#1 259195331 -259193957 213851821#2 213851821#1 259199995 174121752 155296547#7"/>
    </person>
    <person id="ped22" type="ped_pedestrian" depart="57.77">
        <walk edges="-377103314 479037374#0 393907860#1 -393907860#2 194714712 809062693 809062692 149642749 423133512 188215406 208412892#4 718314467 -718314466#0"/>
    </person>
    <person id="ped23" type="ped_pedestrian" depart="60.40">
        <walk edges="-385078968 251421193#0 313843749#1 479037383#1 313843749#3 366838964 388280785 377213302 23888931 23019727#0 23019727#1" busStop="5146079337"/> <!-- Esch, Tramschapp -->
        <ride busStop="1631828668" lines="4:0" intended="pt_bus_4:0.0" depart="764.00"/> <!-- Esch, Rue des Tramways -->
        <walk edges="150258989#5 150258992#0 150258992#1 150258992#2"/>
    </person>
    <person id="ped24" type="ped_pedestrian" depart="63.02">
        <walk edges="42299040#1 393764288#1 393764288#0 43662107#2 -338624770#1 -338624770#3 -338624770#4 -408845038#1 575224397#0 394660927#4 694995535 164439334#1 164439334#2 694995536 393909194#0 393909194#1 164439327#1 785709733#0 511339155#1 -753393308 -164439328 -25691739#1 25691683#1 25691686#0"/>
    </person>
    <person id="ped25" type="ped_pedestrian" depart="65.65">
        <walk edges="259194212#0 -259194212#0 -694992983 479118879#5 753387539#3 479118879#3 479118879#2 479118879#1 479118880 479118881#3 155291168#1 155291168#2 155291168#3 155291168#4 -259193957 259195331 -213910574 393909194#0 694995536 164439334#2 227341950#4 227341950#3 227341950#2 227341950#1 227341950#0 393835185 -227338318#0" busStop="-6212933654"/> <!-- Esch/Alzette, Porte des Sciences -->
        <ride busStop="6687644239" lines="4:1" intended="pt_bus_4:1.2" depart="2196.00"/> <!-- Esch, Avenue du Rock’n’Roll -->
        <walk edges="711234499 711292223 393764276 227335560#0 407697531#1 582546057 -582546059#0"/>
    </person>
    <person id="ped26" type="ped_pedestrian" depart="68.27">
        <walk edges="-96260468#0 765046470#1 765046471#1 765046471#0 259196943 259196938#1 162563100 69353448 149875906#0 683164667 683164659 738179054#10 738179054#11"/>
    </person>
    <person id="ped27" type="ped_pedestrian" depart="70.90">
        <walk edges="43661121#3 479118878 303952223 520514979 479118879#2 479118879#1 479118880 479118881#3 155291168#1 155291168#2 155291168#3 155291168#4 -259193957 259195331 -213910574 393909194#0 694995536 164439334#2 227341950#4 227341950#3 -227341950#2 -227341950#1 445988118#0 394660928#1 394660928#0 394660933 394660931#0"/>
    </person>
    <person id="ped28" type="ped_pedestrian" depart="73.53">
        <walk edges="-447857315#1 -447857313#0 -162561738#8 -162561738#6 -162561738#4 -162561738#2 -552900619#0 552900619#1 -684165134 394660927#3 575224397#0 408845038#2 393764290#1 213851825#6 -213851825#5 213851825#4 -684130272 155309942#1 155296547#1 -378064615#5 641307275 378064614#0 378064614#1 478939514#1"/>
    </person>
    <person id="ped29" type="ped_pedestrian" depart="76.15">
        <walk edges="-447857309#5 -447857309#4 394660931#2 162562785 394660931#0 394660933 394660928#0 394660928#1 445988118#0 -227341950#0 393596509 393596508#0" busStop="6212933653"/> <!-- Esch/Alzette, Porte des Sciences -->
        <ride busStop="1115018384" lines="4:0" intended="pt_bus_4:0.0" depart="536.00"/> <!-- Esch, Raemerich -->
        <walk edges="366838964 388280785 28242822"/>
    </person>
    <person id="ped30" type="ped_pedestrian" depart="78.78">
        <walk edges="93359226#2 -93359226#1 -93359226#0 -364154097#4 482907802 364154087 293960055 364154085 364154086 293867127#1 293867127#0 218390411#0 218390411#1 218390411#2 393764308#0 393764312 393764341#0 393764341#1 393764341#2 393764341#3 479037388#6 42299654#1"/>
    </person>
    <person id="ped31" type="ped_pedestrian" depart="81.40">
        <walk edges="393764288#0 -163993620#1 -163993620#2 162561738#1 -162561738#2 -162561738#4 -162561738#6 -162561738#8 -162561738#10 447857309#9"/>
    </person>
    <person id="ped32" type="ped_pedestrian" depart="84.03">
        <walk edges="552900621 -552900619#3 552900620 -552900619#0 -447857309#0 -447857309#1 -447857309#2 -447857309#3 394660931#2 162562785 394660931#0 394660933 394660928#0 394660928#1 445988118#0 -227341950#0 393835185 -227338318#0 533269771#1 533269771#2 533269770#0 479178957#1 479178957#2 482442872#0"/>
    </person>
    <person id="ped33" type="ped_pedestrian" depart="86.66">
        <walk edges="-69353467 385525540 385381755 385078971#1 96198635 -96198629#0 96198630#0 313843749#3 393248498#0 393248497#0" busStop="1115018437"/> <!-- Esch, Raemerich -->
        <ride busStop="-6212933651" lines="7:0" intended="pt_bus_7:0.0" depart="603.00"/> <!-- Esch/Alzette, Porte des Sciences -->
        <walk edges="-227338318#0" busStop="-6212933654"/> <!-- Esch/Alzette, Porte des Sciences -->
        <ride busStop="6687644239" lines="7:0" intended="pt_bus_7:0.0" depart="956.00"/> <!-- Esch, Avenue du Rock’n’Roll -->
        <walk edges="711234499 711292223 393764276 227335560#0 -227335560#0"/>
    </person>
    <person id="ped34" type="ped_pedestrian" depart="89.28">
        <walk edges="194714691 -626683099#0 106887866"/>
    </person>
    <person id="ped35" type="ped_pedestrian" depart="91.91">
        <walk edges="-582546059#3 -582546059#2 -582546059#1 582546057 407697531#1 227335560#0 393764276 738204224#0 227350281#2 149875906#1 683164667 683164659 683164663#0 683164663#13 683164663#12 738179056#0"/>
    </person>
    <person id="ped36" type="ped_pedestrian" depart="94.53">
        <walk edges="630262535#0 630262533 379136137#20 379136137#21 379136137#22 379136122 42299654#1 42299654#0 363316832 393596508#0" busStop="6212933653"/> <!-- Esch/Alzette, Porte des Sciences -->
        <ride busStop="1115018384" lines="4:0" intended="pt_bus_4:0.0" depart="536.00"/> <!-- Esch, Raemerich -->
        <walk edges="366838964 388280785 377213302 393248447 377213300 188215407"/>
    </person>
    <person id="ped37" type="ped_pedestrian" depart="97.16">
        <walk edges="440710413#0 -393907872#3 -393907872#4 387488097#1 387488097#0 -393907870#1 393907857 -164439328 -753393308 511339155#1 785709733#1 43661121#8 43661121#7 43661121#6 303952224"/>
    </person>
    <person id="ped39" type="ped_pedestrian" depart="102.41">
        <walk edges="-96198629#1 96198630#0 313843749#3 366838964" busStop="1115018384"/> <!-- Esch, Raemerich -->
        <ride busStop="-1649300091" lines="203:0" intended="pt_bus_203:0.0" depart="386.00"/> <!-- Esch, Rue Henri Koch -->
        <walk edges="-25210189#0 -38903574#5 -38903574#4 -38903574#3 -38903574#2 -772693129#3"/>
    </person>
    <person id="ped40" type="ped_pedestrian" depart="105.04">
        <walk edges="393764300#2 393764300#3 393596508#2 -393596508#1 393596508#0" busStop="6212933653"/> <!-- Esch/Alzette, Porte des Sciences -->
        <ride busStop="5146079337" lines="4:0" intended="pt_bus_4:0.0" depart="536.00"/> <!-- Esch, Tramschapp -->
        <walk edges="23019727#1 23019727#2 -388211543 223813241 -364154095 371436527#2 -388211544#0 -388211544#1 -388211544#2 93359247#0 -93359247#1 -93359247#3"/>
    </person>
    <person id="ped41" type="ped_pedestrian" depart="107.66">
        <walk edges="393764350#6 738179057 738179053 738179054#1 683164663#5 738179054#0 683164663#6"/>
    </person>
    <person id="ped42" type="ped_pedestrian" depart="110.29">
        <walk edges="323877828#0 575525391 -314738746#1 -150258989#0 96202384 388006867#1" busStop="4464473490"/> <!-- Esch, Tramschapp -->
        <ride busStop="-6212933651" lines="4:1" intended="pt_bus_4:1.0" depart="632.00"/> <!-- Esch/Alzette, Porte des Sciences -->
        <walk edges="-227338318#0" busStop="-6212933654"/> <!-- Esch/Alzette, Porte des Sciences -->
        <ride busStop="6687644239" lines="7:0" intended="pt_bus_7:0.0" depart="956.00"/> <!-- Esch, Avenue du Rock’n’Roll -->
        <walk edges="711234499 393764279#1 738204223#0 149875906#1 149875906#0 69353448 162563100 259196938#1 259196943 765046471#0 777938862 96260468#1 642213925#1 -672774776#0 -672774776#1"/>
    </person>
    <person id="ped43" type="ped_pedestrian" depart="112.91">
        <walk edges="96202364#0 84526771#1 84526771#0 440710544 440710413#3 440710413#2 393248511#0 393248511#1 375371401 313843749#1 479037383#1 313843749#3 366838964 388280785 377213302 23888931 388280781 385079851 152101003 594713491 25210189#3 384709893#0 384709893#1"/>
    </person>
    <person id="ped44" type="ped_pedestrian" depart="115.54">
        <walk edges="-378064617 -378064615#7 -378064615#6 -378064615#5 155296547#1 155309942#1 155309942#0 213851821#0 213851821#1 213851821#2 -259193957 259195331 164439325#1 478909403 785709733#0 511339155#1 -753393308 -164439328 -25691739#1 223581247#5 223581247#6" busStop="1115018462"/> <!-- Belvaux, Brill -->
        <ride busStop="5146079337" lines="1:1" intended="pt_bus_1:1.1" depart="1158.00"/> <!-- Esch, Tramschapp -->
        <ride busStop="1631828668" lines="4:0" intended="pt_bus_4:0.1" depart="1364.00"/> <!-- Esch, Rue des Tramways -->
        <walk edges="150258989#5 150258989#4 -150258989#3 -150258989#2 -27414767#0"/>
    </person>
    <person id="ped46" type="ped_pedestrian" depart="120.79">
        <walk edges="510864901#1 -393764290#1 -106888004#0 106888004#1 -626683099#3 383805347#0 -174128071#1 194714720#0 -361570991#2 361570991#3"/>
    </person>
    <person id="ped47" type="ped_pedestrian" depart="123.42">
        <walk edges="-361376567 106887866 -626683099#0 194714706 142890934 142890930 377211608 385104372#1" busStop="-540592226"/> <!-- Belval-Lycée -->
        <ride busStop="-2126814069" lines="CFL-60:0" intended="pt_train_CFL-60:0.1" depart="1206.00"/> <!-- Belval-Université -->
        <walk edges="259196946#0 162563100 69353448 149875906#0 149875906#1 227350281#2 738204224#0 393764276 227335560#0 293181550#1"/>
    </person>
    <person id="ped48" type="ped_pedestrian" depart="126.04">
        <walk edges="96198634#2 -377213304#0 96198635 385078971#0 28242822 377213302 23888931 388280781 385079851 388040068"/>
    </person>
    <person id="ped49" type="ped_pedestrian" depart="128.67">
        <walk edges="785709733#1 785709733#0 164439327#1 393909194#1 393909194#0 694995536 164439334#2 164439334#1 694995535 394660927#4 575224397#0 575224397#1 575224398 575224400#0 575224400#1"/>
    </person>
    <person id="ped50" type="ped_pedestrian" depart="131.30">
        <walk edges="-162561738#8 -162561738#6 -162561738#4 -162561738#2 -552900619#0 552900619#1 -684165134 394660927#3 575224397#0 408845038#2 393764290#1 -106888004#0 -526326125 -213851825#1 162562140#1 360815375#1 360815375#2 360815375#3 360815375#4 360815375#5 360815375#6 478939508#2"/>
    </person>
    <person id="ped51" type="ped_pedestrian" depart="133.92">
        <walk edges="447857309#3 394660931#2 162562785 394660931#0 394660933 394660928#0 394660928#1 445988118#0 -227341950#0 446729531#2 446729531#3 511852941#5 511852941#4 511852932 511852935#1 511852934#0 511852933 511852941#0 445988116#2 425555630#2 227337561" busStop="3968040959"/> <!-- Esch/Alzette, Cité des Sciences -->
        <ride busStop="-1649300091" lines="332:0" intended="pt_bus_332:0.0" depart="799.00"/> <!-- Esch, Rue Henri Koch -->
        <walk edges="-25210189#0 -38903574#5 -38903574#4 -38903574#3 38903574#2"/>
    </person>
    <person id="ped52" type="ped_pedestrian" depart="136.55">
        <walk edges="-96260467 765046470#1 765046471#1 765046471#0 259196943 259196938#1 162563100 69353448 149875906#0 149875906#1 227350281#2 738204224#0 393764276 227335560#0 -42303578#0 42303578#1"/>
    </person>
    <person id="ped53" type="ped_pedestrian" depart="139.17">
        <walk edges="-388211544#5 388211544#5 -93359226#3 -482907800 -303055946#2 -303055945#1 -303055945#0 -93359250 -364154097#2 364154097#1"/>
    </person>
    <person id="ped54" type="ped_pedestrian" depart="141.80">
        <walk edges="377103314 -479037374#1 -69357521#3 445988114#6 445988114#5 445988114#4 445988114#3 445988114#2 445988118#1 445988118#0 394660928#1 394660928#0 394660933 394660935#1 394660935#0 394660937 360827910#1 360827911#2 360827911#3" busStop="4107543803"/> <!-- Belvaux, Um Bedding -->
        <ride busStop="5045105611" lines="306:1" intended="pt_bus_306:1.1" depart="1341.00"/> <!-- Belvaux, Lycée Bel-Val -->
        <walk edges="516873295#0 516873295#1 516873295#2 516873295#3 516873295#4 227342465#4 378064614#24 174128477 -378064615#6 -378064615#5 155296547#1 155296547#0 155296547#7 753387555"/>
    </person>
    <person id="ped55" type="ped_pedestrian" depart="144.43">
        <walk edges="630262533 379136137#20 379136137#21 379136137#22 379136122 42299654#1 42299654#0 363316832 393596508#0" busStop="6212933653"/> <!-- Esch/Alzette, Porte des Sciences -->
        <ride busStop="5146079337" lines="4:0" intended="pt_bus_4:0.0" depart="536.00"/> <!-- Esch, Tramschapp -->
        <walk edges="23019727#1 23019727#2 -388211543 223813241 -364154095 371436527#2 -388211544#0 -388211544#1 -388211544#2 93359247#0 -93359247#1 93359247#3 -93359247#4"/>
    </person>
    <person id="ped56" type="ped_pedestrian" depart="147.05">
        <walk edges="379136137#7 379136137#6 477115075#6 379136137#4 477115075#4 379136137#2 477115075#2 379136137#0 379136137#25 379136137#24 379136137#23 379136122 42299654#1 42299654#0 533269770#1 533269770#0 479178957#0 393596508#2 425555630#2 227337561 426538581#0 426538581#1 426538581#2 423133516 423133512 28246185 194714719 440710412#0 -393907872#1 468755769#0 -468755769#1 -468755769#2 -468755769#3"/>
    </person>
    <person id="ped57" type="ped_pedestrian" depart="149.68">
        <walk edges="69353439#1 393596508#2 479178957#0 533269770#0 533269770#1 42299654#0 479037388#6 393764341#3 393764341#2 393764341#1 393764341#0 393764312 393764308#0 218390411#2 218390411#1 218390411#0 69353444#3 69353444#2 69353444#1 -227335560#0 407697531#1 582546057 -582546059#1 -582546059#2 582546059#5"/>
    </person>
    <person id="ped58" type="ped_pedestrian" depart="152.30">
        <walk edges="162562779#2 162562779#3 162562779#4 575224399 575224397#1 -408845038#1 -408845038#0" busStop="-2360364949"/> <!-- Belvaux, Um Bedding -->
        <ride busStop="4408239878" lines="306:0" intended="pt_bus_306:0.0" depart="403.00"/> <!-- Esch/Alzette, Porte de France -->
        <walk edges="393764297#1 393764297#2 393764297#3 393835185 -227338318#0 533269771#1 533269771#2 533269770#0 479178957#1 479178957#2 479178957#3 479178957#4 479178957#5 42299170#1"/>
    </person>
    <person id="ped59" type="ped_pedestrian" depart="154.93">
        <walk edges="394660931#0 394660933 394660928#0 394660928#1 445988118#0 -227341950#1 -227341950#2 227341950#3 227341950#4 164439334#2 694995536 393909194#0 -213910574 259195331 -259193957 155291168#4 155291168#3 155291168#2 155291168#1 479118881#3 479118880 479118879#1 479118879#2 520514979 303952223 479118878 -43661121#3"/>
    </person>
    <person id="ped60" type="ped_pedestrian" depart="157.56">
        <walk edges="479178950#3 393596508#2 -393596508#1 393596508#0" busStop="6212933653"/> <!-- Esch/Alzette, Porte des Sciences -->
        <ride busStop="1115018384" lines="4:0" intended="pt_bus_4:0.0" depart="536.00"/> <!-- Esch, Raemerich -->
        <walk edges="366838964 388280785 377213302 393248447"/>
    </person>
    <person id="ped61" type="ped_pedestrian" depart="160.18">
        <walk edges="482654639#1 482654639#0 393764341#0 393764341#1 393764341#2 393764341#3 479037388#6 42299654#0 363316832 393596508#0" busStop="6212933653"/> <!-- Esch/Alzette, Porte des Sciences -->
        <ride busStop="5146079337" lines="4:0" intended="pt_bus_4:0.0" depart="536.00"/> <!-- Esch, Tramschapp -->
        <walk edges="23019727#1 23019727#2 -388211543 223813241 -364154095 371436527#2 388211544#0"/>
    </person>
    <person id="ped62" type="ped_pedestrian" depart="162.81">
        <walk edges="-141242409 141242409 363315173 -378064615#4 155296547#1 155309942#1 155309942#0 213851821#0"/>
    </person>
    <person id="ped63" type="ped_pedestrian" depart="165.43">
        <walk edges="-210939720#1 445988119#2 208412892#0 479037401 718314466#0 718314466#1 718314466#2 718314466#3"/>
    </person>
    <person id="ped64" type="ped_pedestrian" depart="168.06">
        <walk edges="630262538 379136137#19 379136137#20 379136137#21 379136137#22 379136122 42299654#1 42299654#0 363316832 393596509 393764300#0 445988117#1 445988117#0 445988114#3 533269772"/>
    </person>
    <person id="ped65" type="ped_pedestrian" depart="170.69">
        <walk edges="164439325#2 164439325#1 478909403 785709733#0 511339155#1 -753393308 -164439328 -25691739#1 223581247#5 223581247#6" busStop="1115018462"/> <!-- Belvaux, Brill -->
        <ride busStop="1631828668" lines="2:1" intended="pt_bus_2:1.0" depart="601.00"/> <!-- Esch, Rue des Tramways -->
        <walk edges="150258989#5 150258989#4 150258989#3 150258989#2 -314738746#1"/>
    </person>
    <person id="ped66" type="ped_pedestrian" depart="173.31">
        <walk edges="630262537 630262536 482654641#2 482654641#3 482654634#1 738204223#1 738204223#0"/>
    </person>
    <person id="ped67" type="ped_pedestrian" depart="175.94">
        <walk edges="-377213304#1 -377213304#0 96198635 385078971#0 28242822 388280785 366838964" busStop="1115018384"/> <!-- Esch, Raemerich -->
        <ride busStop="-1649300091" lines="203:0" intended="pt_bus_203:0.0" depart="386.00"/> <!-- Esch, Rue Henri Koch -->
        <walk edges="-25210189#0 25210189#0" busStop="8528041097"/> <!-- Esch, Lycée Guillaume Kroll -->
        <ride busStop="4721178055" lines="308:0" intended="pt_bus_308:0.1" depart="699.00"/> <!-- Belvaux, Lycée Bel-Val -->
        <walk edges="360815375#10 516873295#0 516873295#1 516873295#2 516873295#3 516873295#4 227342465#4 378064614#24 174128477 378064615#6"/>
    </person>
    <person id="ped68" type="ped_pedestrian" depart="178.56">
        <walk edges="-364154090#1 -364154090#0 -223813243#0 -93359213#5 -364154091 -371436540#1 -371436540#0 218390407 385080086#0 393248498#3 28242822 388280785 366838964 393248498#0 393248497#0" busStop="1115018437"/> <!-- Esch, Raemerich -->
        <ride busStop="-6212933651" lines="15:1" intended="pt_bus_15:1.0" depart="762.00"/> <!-- Esch/Alzette, Porte des Sciences -->
        <walk edges="-227338318#0 -227338318#1 479178950#0"/>
    </person>
    <person id="ped69" type="ped_pedestrian" depart="181.19">
        <walk edges="479178957#4 479178957#3 479178957#2 353178841#1 353178841#0 479037389 -479037393 -393764343#12"/>
    </person>
    <person id="ped70" type="ped_pedestrian" depart="183.81">
        <walk edges="378064614#17 478939511#0 478939511#1 360815375#10 516873295#0" busStop="4721178055@6112896"/> <!-- Belvaux, Lycée Bel-Val -->
        <ride busStop="4408239875" lines="309:0" intended="pt_bus_309:0.0" depart="482.00"/> <!-- Belvaux, Um Bedding -->
        <walk edges="360827911#3 -408845038#0" busStop="-2360364949"/> <!-- Belvaux, Um Bedding -->
        <ride busStop="4408239878" lines="309:0" intended="pt_bus_309:0.0" depart="691.00"/> <!-- Esch/Alzette, Porte de France -->
        <walk edges="393764297#1 393764297#2 393764297#3 393596509 393596508#0" busStop="6212933653"/> <!-- Esch/Alzette, Porte des Sciences -->
        <ride busStop="1115018384" lines="4:0" intended="pt_bus_4:0.1" depart="1136.00"/> <!-- Esch, Raemerich -->