<?xml version="1.0" encoding="UTF-8"?>

<!-- generated on Mon Mar 22 13:06:23 2021 by Eclipse SUMO polyconvert Version 1.8.0
<configuration xmlns:xsi="http://www.w3.org/2001/XMLSchema-instance" xsi:noNamespaceSchemaLocation="http://sumo.dlr.de/xsd/polyconvertConfiguration.xsd">

    <input>
        <net-file value="osm.net.xml"/>
        <osm-files value="osm_bbox.osm.xml"/>
        <osm.keep-full-type value="true"/>
        <type-file value="/usr/share/sumo/data/typemap/osmPolyconvert.typ.xml"/>
    </input>

    <output>
        <output-file value="osm.poly.xml"/>
    </output>

    <processing>
        <poi-layer-offset value="5"/>
    </processing>

    <report>
        <verbose value="true"/>
    </report>

</configuration>
-->

<additional xmlns:xsi="http://www.w3.org/2001/XMLSchema-instance" xsi:noNamespaceSchemaLocation="http://sumo.dlr.de/xsd/additional_file.xsd">
    <location netOffset="-711455.69,-5486576.69" convBoundary="-2749.39,-3423.23,5839.22,2442.44" origBoundary="5.882691,49.462146,6.000652,49.515235" projParameter="+proj=utm +zone=31 +ellps=WGS84 +datum=WGS84 +units=m +no_defs"/>

    <poly id="108296913" type="building.yes" color="255,230,230" fill="1" layer="-1.00" shape="2004.834033,696.587350 2017.840065,736.783189 1995.246602,744.047141 1982.240431,703.851360 2004.834033,696.587350"/>
    <poly id="108296913#1" type="tourism.attraction" color="207,245,201" fill="1" layer="-2.00" shape="2004.834033,696.587350 2017.840065,736.783189 1995.246602,744.047141 1982.240431,703.851360 2004.834033,696.587350"/>
    <poly id="148555054" type="building.yes" color="255,230,230" fill="0" layer="-1.00" shape="3024.414990,1743.660945 3031.720250,1747.021054 3036.029515,1737.360768 3031.935372,1735.663330 3035.513202,1728.378852 2890.041926,1660.858406 2897.427593,1644.673007 2918.557407,1654.476977 2922.841836,1645.628300 2943.323647,1654.950447 2945.378031,1650.455866 2939.994040,1648.006410 2943.467789,1640.417208 2868.639395,1607.304674 2864.856786,1615.560845 2859.081196,1612.929086 2857.098575,1617.259531 2864.462003,1620.621685 2863.470691,1622.786907 2862.288857,1622.239466 2859.718601,1627.871551 2866.947114,1631.161610 2869.508391,1625.573703 2867.364731,1624.598795 2868.363720,1622.422744 2874.837251,1625.371410 2871.191631,1632.909360 2892.770919,1642.530520 2885.232440,1659.099548 2849.736108,1643.732214 2849.934872,1639.231416 2848.625320,1634.927340 2845.962800,1631.293660 2842.242370,1628.753877 2837.888255,1627.580724 2833.388272,1627.904710 2829.250830,1629.701298 2825.948342,1632.755286 2823.841783,1636.735764 2823.181122,1641.185000 2824.029455,1645.604519 2826.297878,1649.489868 2829.734759,1652.419255 2833.941086,1654.031886 2838.451640,1654.175878 2842.752968,1652.819906 2846.301208,1650.521463 2859.166606,1656.281953 2838.173504,1702.167776 2862.151739,1713.085478 2868.401254,1699.426942 2881.839225,1705.555121 2875.701068,1718.961979 2898.732270,1729.441833 2904.712164,1716.373875 2918.470513,1722.648343 2912.434678,1735.847676 2934.774611,1746.022185 2940.984595,1732.451225 2954.928426,1738.799883 2948.519971,1752.808316 2971.586219,1763.312140 2977.931574,1749.434837 2991.490605,1755.612597"/>
    <poly id="148555059" type="building.school" color="255,230,230" fill="1" layer="-1.00" shape="3104.256662,1810.470682 3178.032001,1835.618964 3192.628497,1791.530646 3215.542429,1799.079447 3222.330784,1778.573775 3376.228359,1829.124827 3379.363470,1818.739398 3377.031360,1818.135352 3379.998493,1808.333320 3156.994952,1736.067913 3157.932991,1732.865324 3123.412193,1721.653547 3122.140885,1725.956259 3117.260923,1724.517252 3115.064800,1732.423849 3117.140142,1733.106726 3113.112580,1745.550024 3121.068462,1748.034152 3115.925880,1763.572881 3111.059755,1761.967436 3109.768032,1765.868579 3117.767546,1768.532541 3104.256662,1810.470682"/>
    <poly id="148555060" type="amenity.school" color="237,199,199" fill="1" layer="-1.00" shape="2723.460131,1649.710366 2756.025186,1580.511457 2788.755735,1579.582916 2832.473062,1582.604457 2858.849380,1586.936983 2880.034144,1592.033945 2900.507260,1598.082647 2920.977453,1605.678716 3026.647028,1652.518707 3106.107696,1697.560622 3124.315119,1707.929429 3146.768190,1717.619452 3241.889870,1756.467271 3266.137453,1764.759041 3372.560986,1791.786678 3384.010355,1800.531797 3387.831423,1806.026044 3388.850616,1812.166821 3385.294349,1834.703421 3376.149737,1832.405803 3368.779283,1861.593955 3356.234717,1916.483351 3205.986260,1869.783567 3040.154348,1815.249656 3046.044648,1805.017072 2979.684821,1779.116033 2874.004205,1733.166955 2723.460131,1649.710366"/>
    <poly id="148555097" type="building.yes" color="255,230,230" fill="1" layer="-1.00" shape="2912.895224,1697.793005 2927.252850,1704.313717 2933.709968,1690.173587 2919.345072,1683.652574 2912.895224,1697.793005"/>
    <poly id="148555098" type="building.yes" color="255,230,230" fill="1" layer="-1.00" shape="2875.886985,1681.063508 2890.244695,1687.584119 2896.701730,1673.443947 2882.336749,1666.923035 2875.886985,1681.063508"/>
    <poly id="148555099" type="building.yes" color="255,230,230" fill="1" layer="-1.00" shape="2948.853714,1714.114094 2963.218497,1720.635188 2969.675696,1706.495098 2955.310880,1699.973988 2948.853714,1714.114094"/>
    <poly id="148555100" type="building.yes" color="255,230,230" fill="1" layer="-1.00" shape="2985.011160,1730.532323 2997.795108,1736.512606 3003.422412,1724.121072 2990.269307,1718.126250 2985.011160,1730.532323"/>
    <poly id="155296344" type="building.school" color="255,230,230" fill="1" layer="-1.00" shape="997.713188,1137.544575 980.171735,1098.610818 972.278266,1081.092886 969.825647,1082.266348 966.399014,1076.065784 1022.892209,1050.304159 1022.115968,1049.015966 1024.836445,1047.852970 1057.292567,1100.114726 1052.643475,1103.328737 1050.956698,1101.036539 1026.228657,1116.458848 1003.350829,1130.728857 1000.037060,1132.792698 1001.694764,1135.272992 997.713188,1137.544575"/>
    <poly id="155391357" type="natural.water" color="181,209,209" fill="1" layer="-4.00" shape="1590.509394,1070.337558 1585.907692,1057.121868 1597.772717,1053.299799 1596.699732,1048.849503 1601.878015,1048.985146 1602.424140,1047.069493 1604.728653,1054.696085 1607.949451,1054.276523 1613.103679,1055.212755 1617.875957,1057.759360 1621.608576,1061.679111 1623.911381,1066.567124 1624.571857,1071.925273 1623.509093,1077.227178 1620.831687,1081.920476 1616.811683,1085.537121 1611.854308,1087.725596 1606.462218,1088.238383 1601.180045,1087.052245 1596.540405,1084.265930 1593.105875,1080.324452 1591.031212,1075.534429 1590.509394,1070.337558"/>
    <poly id="155391359" type="building.yes" color="255,230,230" fill="1" layer="-1.00" shape="1601.878015,1048.985146 1596.699732,1048.849503 1591.057738,1048.706870 1590.110513,1046.788500 1585.377005,1044.733253 1580.336027,1040.528609 1576.790004,1034.801636 1575.116942,1027.711823 1575.885652,1020.472548 1578.999711,1013.881559 1584.117880,1008.693644 1590.667422,1005.465292 1597.915618,1004.579756 1605.054610,1006.116780 1611.286101,1009.911568 1615.915897,1015.547350 1618.424993,1022.391559 1618.538917,1029.676472 1616.239167,1036.577582 1611.779700,1042.347830 1605.664783,1046.327872 1602.424140,1047.069493 1601.878015,1048.985146"/>
    <poly id="162562142" type="leisure.pitch" color="207,245,201" fill="1" layer="-2.00" shape="926.929976,1095.277767 903.907441,1113.639155 874.742891,1075.666672 892.438053,1056.719090 926.929976,1095.277767"/>
    <poly id="162562142#1" type="sport.hockey" color="79,230,125" fill="1" layer="-2.00" shape="926.929976,1095.277767 903.907441,1113.639155 874.742891,1075.666672 892.438053,1056.719090 926.929976,1095.277767"/>
    <poly id="162562782" type="amenity.parking" color="184,184,179" fill="1" layer="-1.00" shape="1616.358303,996.072164 1622.162567,1013.019654 1623.458626,1024.558758 1622.467898,1032.468415 1614.758283,1049.421906 1624.390653,1063.580168 1626.472913,1070.585811 1624.884577,1077.648319 1622.106684,1082.872034 1617.868936,1086.680545 1612.333897,1089.737010 1606.360259,1090.104606 1598.786477,1088.750955 1587.915566,1082.537239 1580.757850,1081.110821 1570.184907,1049.282478 1568.005238,1045.323277 1563.329898,1033.062102 1575.784556,1013.043422 1582.540003,1006.772888 1616.358303,996.072164"/>
    <poly id="162562782#1" type="landuse.brownfield" color="194,194,130" fill="1" layer="-3.00" shape="1616.358303,996.072164 1622.162567,1013.019654 1623.458626,1024.558758 1622.467898,1032.468415 1614.758283,1049.421906 1624.390653,1063.580168 1626.472913,1070.585811 1624.884577,1077.648319 1622.106684,1082.872034 1617.868936,1086.680545 1612.333897,1089.737010 1606.360259,1090.104606 1598.786477,1088.750955 1587.915566,1082.537239 1580.757850,1081.110821 1570.184907,1049.282478 1568.005238,1045.323277 1563.329898,1033.062102 1575.784556,1013.043422 1582.540003,1006.772888 1616.358303,996.072164"/>
    <poly id="162562782#2" type="natural.scrub" color="140,196,107" fill="1" layer="-4.00" shape="1616.358303,996.072164 1622.162567,1013.019654 1623.458626,1024.558758 1622.467898,1032.468415 1614.758283,1049.421906 1624.390653,1063.580168 1626.472913,1070.585811 1624.884577,1077.648319 1622.106684,1082.872034 1617.868936,1086.680545 1612.333897,1089.737010 1606.360259,1090.104606 1598.786477,1088.750955 1587.915566,1082.537239 1580.757850,1081.110821 1570.184907,1049.282478 1568.005238,1045.323277 1563.329898,1033.062102 1575.784556,1013.043422 1582.540003,1006.772888 1616.358303,996.072164"/>
    <poly id="163992121" type="building.office" color="255,230,230" fill="1" layer="-1.00" shape="1862.755279,911.710246 1848.599564,916.622137 1845.181712,917.813107 1839.125810,900.454736 1842.212699,899.384395 1841.019348,895.975759 1837.991239,897.026137 1836.029385,891.394378 1853.543804,885.322565 1862.755279,911.710246"/>
    <poly id="163992513" type="landuse.grass" color="194,194,130" fill="1" layer="-3.00" shape="1828.402322,923.446151 1825.450048,917.742241 1822.130705,900.112486 1829.718079,900.754502 1832.554886,915.337413 1837.040082,923.183045 1828.402322,923.446151"/>
    <poly id="163993519" type="building.office" color="255,230,230" fill="1" layer="-1.00" shape="1672.136738,786.618803 1663.559257,759.933482 1624.617752,772.381857 1623.971627,770.363934 1623.195495,767.962434 1606.705794,773.229002 1601.698792,774.825558 1605.836026,787.689118 1611.691988,805.918796 1672.136738,786.618803"/>
    <poly id="164439716" type="waterway.stream" color="181,209,209" fill="0" layer="-4.00" shape="1164.189349,1405.742610 1172.460272,1413.557266 1199.490695,1428.282330 1216.812322,1430.427773 1228.270391,1427.902683 1240.735299,1417.969502 1248.277632,1413.989152 1256.015030,1407.611879 1287.128306,1402.425473 1297.418311,1397.884528 1314.884900,1393.534751 1400.573178,1382.910274 1418.727570,1380.814123 1424.261927,1378.692564 1466.254566,1371.338372 1564.900157,1354.732648 1573.801104,1354.579651 1576.390014,1351.775354 1580.688012,1350.128827"/>
    <poly id="165298202" type="building.yes" color="255,230,230" fill="1" layer="-1.00" shape="2030.037801,924.583356 2045.563312,919.502940 2036.698931,892.605270 2021.173356,897.685712 2030.037801,924.583356"/>
    <poly id="165298203" type="building.office" color="255,230,230" fill="1" layer="-1.00" shape="2064.039412,887.408845 2044.008565,893.860110 2063.355313,953.541061 2067.136884,952.319946 2069.316399,959.051295 2076.416524,956.769050 2074.275659,950.161667 2083.431858,947.214125 2064.039412,887.408845"/>
    <poly id="178404406" type="landuse.village_green" color="242,242,204" fill="1" layer="-3.00" shape="2575.024911,1633.524784 2570.704174,1626.887176 2567.877805,1619.484476 2566.677037,1611.666936 2567.139879,1603.758886 2569.259170,1596.127412 2572.941764,1589.113961 2578.008531,1583.034335 2584.246766,1578.136229 2591.378618,1574.664775 2599.079934,1572.751965 2607.020629,1572.496156 2614.830683,1573.905079 2622.171646,1576.920907 2628.715803,1581.397175 2634.172943,1587.155493 2638.018053,1593.351436 2640.599249,1600.165663 2641.802660,1607.359918 2641.596219,1614.643499 2639.975936,1621.749072 2637.002965,1628.411865 2632.803161,1634.380780 2627.523656,1639.416689 2621.367300,1643.338314 2614.564144,1646.009976 2607.372755,1647.308248 2600.062240,1647.210305 2592.916184,1645.693892 2586.192965,1642.824819 2580.156017,1638.724757 2575.024911,1633.524784"/>
    <poly id="180910895" type="population.994" color="51,128,255" fill="0" layer="-1.00" shape="1139.542292,590.587827 1226.023729,495.085946 1336.622567,381.780131 1350.953450,356.613186 1395.008587,280.474956 1421.316536,231.029052 1441.151669,226.282110 1477.061605,149.147255 1492.613298,116.703330 1515.087180,67.252736 1562.235366,-8.507543 1610.626911,-80.055467 1673.811776,-155.666876 1711.434984,-179.299060 1699.426872,-202.489334 1749.875963,-315.812822 1766.300789,-340.473990 1753.110742,-367.751571 1677.221135,-360.120788 1592.575817,-349.992398 1553.391351,-366.596322 1498.934934,-398.802589 1352.325200,-483.453544 1302.882297,-513.736543 1362.893463,-623.239105 1388.337037,-695.606743 1382.316112,-717.115253 1405.396008,-725.943841 1376.771174,-778.691962 1373.485550,-786.857593 1357.789381,-831.764895 1346.769385,-866.604332 1341.628951,-891.173134 1339.710050,-914.480745 1347.317964,-913.371223 1339.621876,-924.859319 1238.427431,-937.623734 1184.253571,-938.211283 1165.807093,-942.392609 1158.291172,-945.490930 1103.717767,-972.854785 1030.489802,-1025.324180 998.256750,-985.402467 975.009142,-961.661700 910.084748,-909.665549 908.429262,-995.469130 839.876504,-992.961831 765.145823,-1008.928373 697.074283,-1023.822175"/>
    <poly id="180910896" type="population.994" color="51,128,255" fill="0" layer="-1.00" shape="512.925690,403.711720 599.237807,366.559231 835.286715,574.877662 915.055229,467.855225 1064.096599,653.414256 1072.000009,649.492213 1073.939070,654.243310 1139.542292,590.587827"/>
    <poly id="192634655" type="amenity.parking" color="184,184,179" fill="1" layer="-1.00" shape="1813.146768,511.023812 1815.473802,508.253880 1818.604516,506.439368 1822.168239,505.788419 1825.733929,506.384357 1828.890675,508.166575 1831.256244,510.897473 1832.537889,514.276156 1832.599675,517.885413 1831.421935,521.301448 1829.151073,524.118100 1826.061627,525.989882 1822.509785,526.708086 1818.927020,526.178274 1817.485970,525.576411 1815.851502,524.543957 1814.431044,523.230440 1813.259924,521.659505 1812.401122,519.889278 1811.747711,516.390461 1812.305892,512.872256 1813.146768,511.023812"/>
    <poly id="192634655#1" type="building.yes" color="255,230,230" fill="1" layer="-1.00" shape="1813.146768,511.023812 1815.473802,508.253880 1818.604516,506.439368 1822.168239,505.788419 1825.733929,506.384357 1828.890675,508.166575 1831.256244,510.897473 1832.537889,514.276156 1832.599675,517.885413 1831.421935,521.301448 1829.151073,524.118100 1826.061627,525.989882 1822.509785,526.708086 1818.927020,526.178274 1817.485970,525.576411 1815.851502,524.543957 1814.431044,523.230440 1813.259924,521.659505 1812.401122,519.889278 1811.747711,516.390461 1812.305892,512.872256 1813.146768,511.023812"/>
    <poly id="192634656" type="amenity.parking" color="184,184,179" fill="1" layer="-1.00" shape="1818.927020,526.178274 1823.655813,540.779521 1825.902579,547.658086 1830.507881,561.152421 1821.344969,567.595673 1824.393383,572.145575 1822.867284,572.976439 1821.237659,573.858913 1818.882180,575.503374 1813.974104,577.159283 1735.562460,603.625597 1721.381939,608.414435 1719.579230,603.156324 1717.487320,604.365846 1715.004088,604.457976 1712.635851,603.463649 1711.506587,601.193044 1706.120043,603.219961 1696.171798,570.792446 1700.233402,569.459562 1699.023234,565.549364 1697.635975,567.465514 1694.976901,569.643632 1691.754778,570.831232 1688.322309,570.908520 1685.056807,569.867988 1682.301849,567.823259 1680.368140,564.986861 1679.460258,561.689627 1679.688234,558.269824 1681.015141,555.115636 1683.282285,552.577087 1686.248010,550.900772 1689.600003,550.285988 1692.974121,550.774160 1694.807976,551.714184 1693.993163,549.745318 1698.128479,548.381917 1700.603791,547.565875 1813.146768,511.023812 1812.305892,512.872256 1811.747711,516.390461 1812.401122,519.889278 1813.259924,521.659505 1814.431044,523.230440 1815.851502,524.543957 1817.485970,525.576411 1818.927020,526.178274"/>
    <poly id="192634656#1" type="building.yes" color="255,230,230" fill="1" layer="-1.00" shape="1818.927020,526.178274 1823.655813,540.779521 1825.902579,547.658086 1830.507881,561.152421 1821.344969,567.595673 1824.393383,572.145575 1822.867284,572.976439 1821.237659,573.858913 1818.882180,575.503374 1813.974104,577.159283 1735.562460,603.625597 1721.381939,608.414435 1719.579230,603.156324 1717.487320,604.365846 1715.004088,604.457976 1712.635851,603.463649 1711.506587,601.193044 1706.120043,603.219961 1696.171798,570.792446 1700.233402,569.459562 1699.023234,565.549364 1697.635975,567.465514 1694.976901,569.643632 1691.754778,570.831232 1688.322309,570.908520 1685.056807,569.867988 1682.301849,567.823259 1680.368140,564.986861 1679.460258,561.689627 1679.688234,558.269824 1681.015141,555.115636 1683.282285,552.577087 1686.248010,550.900772 1689.600003,550.285988 1692.974121,550.774160 1694.807976,551.714184 1693.993163,549.745318 1698.128479,548.381917 1700.603791,547.565875 1813.146768,511.023812 1812.305892,512.872256 1811.747711,516.390461 1812.401122,519.889278 1813.259924,521.659505 1814.431044,523.230440 1815.851502,524.543957 1817.485970,525.576411 1818.927020,526.178274"/>
    <poly id="192635974" type="building.yes" color="255,230,230" fill="1" layer="-1.00" shape="1178.269099,1559.704157 1192.555277,1561.976009 1193.504776,1556.035096 1194.864846,1547.560943 1196.062833,1540.082358 1197.138098,1533.333707 1198.363876,1525.700357 1199.640161,1517.701618 1200.905307,1509.802633 1203.359916,1494.458129 1189.073561,1492.186254 1178.269099,1559.704157"/>
    <poly id="192635975" type="building.yes" color="255,230,230" fill="1" layer="-1.00" shape="1072.416527,1511.624888 1060.302621,1513.501311 1063.023178,1530.917884 1065.379620,1545.960247 1067.300273,1558.235978 1079.414085,1556.359574 1072.416527,1511.624888"/>
    <poly id="192635976" type="building.yes" color="255,230,230" fill="1" layer="-1.00" shape="1107.991820,1550.917470 1114.191046,1515.391726 1148.620384,1514.374912 1150.035911,1569.133516 1144.093245,1569.280145 1137.751622,1569.433480 1137.526552,1559.595013 1137.198596,1545.333070 1136.876604,1531.661365 1136.738301,1525.544421 1124.493410,1525.389540 1123.394454,1531.447083 1120.822169,1545.540217 1119.483429,1552.913131 1107.991820,1550.917470"/>
    <poly id="192635977" type="building.yes" color="255,230,230" fill="1" layer="-1.00" shape="1099.515473,1662.286737 1118.044466,1661.150502 1117.521558,1652.814389 1117.202068,1647.625477 1116.880410,1642.492141 1116.596272,1637.883480 1116.240558,1632.136548 1115.906288,1626.768946 1115.493769,1620.062434 1115.016775,1612.407174 1114.594112,1605.588945 1115.851481,1605.504411 1115.424181,1598.619208 1114.921532,1590.506530 1101.863738,1591.310739 1102.212370,1596.868145 1098.768136,1597.078887 1099.288485,1605.481688 1096.003925,1605.687528 1099.515473,1662.286737"/>
    <poly id="192635978" type="building.yes" color="255,230,230" fill="1" layer="-1.00" shape="997.821812,1551.084902 997.309869,1541.346595 996.843739,1532.478380 996.420517,1524.368823 996.317572,1522.361026 996.000630,1516.359585 995.907393,1514.474621 995.303370,1503.007245 1006.874372,1502.411970 1009.392712,1550.489634 997.821812,1551.084902"/>
    <poly id="192635979" type="amenity.nursing_home" color="237,199,199" fill="1" layer="-1.00" shape="861.113326,1574.510702 932.078920,1547.219578 929.332591,1507.949746 948.838737,1503.700601 955.345337,1532.975669 958.759255,1548.048056 961.777819,1561.546537 894.642274,1584.678404 909.361534,1622.522370 892.493176,1631.082362 868.263250,1588.214625 861.694006,1591.420738 858.110257,1584.980326 864.824823,1581.579492 861.113326,1574.510702"/>
    <poly id="192635979#1" type="building.yes" color="255,230,230" fill="1" layer="-1.00" shape="861.113326,1574.510702 932.078920,1547.219578 929.332591,1507.949746 948.838737,1503.700601 955.345337,1532.975669 958.759255,1548.048056 961.777819,1561.546537 894.642274,1584.678404 909.361534,1622.522370 892.493176,1631.082362 868.263250,1588.214625 861.694006,1591.420738 858.110257,1584.980326 864.824823,1581.579492 861.113326,1574.510702"/>
    <poly id="192635980" type="building.yes" color="255,230,230" fill="1" layer="-1.00" shape="1036.325415,1540.385446 1037.483855,1510.307071 1058.091081,1511.099577 1057.622779,1523.293265 1049.385438,1522.983148 1049.006015,1532.898215 1048.702885,1540.857001 1036.325415,1540.385446"/>
    <poly id="192635981" type="building.yes" color="255,230,230" fill="1" layer="-1.00" shape="1139.314251,1640.116793 1139.257439,1652.348808 1173.005778,1658.730781 1182.600039,1606.060467 1184.979269,1593.017372 1179.281498,1591.904453 1173.159287,1590.708184 1170.604260,1604.913298 1169.197877,1612.717719 1167.929559,1619.770540 1166.578319,1627.276545 1165.135619,1635.268795 1163.478741,1644.477225 1155.495715,1643.041380 1139.314251,1640.116793"/>
    <poly id="202630441" type="building.yes" color="255,230,230" fill="1" layer="-1.00" shape="2067.032874,570.768925 2101.433406,548.082067 2085.502219,524.069056 2051.108858,546.756299 2067.032874,570.768925"/>
    <poly id="202868848" type="natural.scrub" color="140,196,107" fill="1" layer="-4.00" shape="1039.760888,847.288598 1041.720464,850.582180 1058.654510,847.468653 1064.522398,847.586133 1070.738675,850.110611 1071.443198,862.906627 1078.804125,869.728221 1076.484957,877.330081 1081.133909,882.676676 1331.456434,802.908125 1316.119218,797.422349 1229.083284,820.063396 1229.114674,830.406382 1169.501553,847.038469 1159.241436,839.268739 1148.703495,838.434644 1132.700641,826.221880 1132.209960,811.664181 1141.057842,806.944178 1142.743060,796.267406 1149.903847,791.492740 1173.445266,789.249561 1191.260436,793.106122 1202.962718,790.300986 1166.914774,786.601389 1101.913094,785.613379 1100.516290,817.897727 1059.455271,835.299072 1039.760888,847.288598"/>
    <poly id="202871654" type="building.yes" color="255,230,230" fill="1" layer="-1.00" shape="2143.261937,525.129867 2175.652113,515.088839 2172.025435,503.469337 2139.634764,513.521504 2143.261937,525.129867"/>
    <poly id="206177896" type="building.office" color="255,230,230" fill="1" layer="-1.00" shape="2099.297255,777.846112 2104.937881,775.996523 2131.496426,767.274224 2128.164489,757.202543 2095.965705,767.763337 2099.297255,777.846112"/>
    <poly id="210939073" type="natural.water" color="181,209,209" fill="1" layer="-4.00" shape="2432.758397,1323.124363 2438.984686,1320.196034 2445.759928,1318.981372 2452.623737,1319.573631 2459.092442,1321.920428 2464.729735,1325.871048 2469.133059,1331.153641 2472.012367,1337.400583 2473.153052,1344.169288 2472.493389,1351.000904 2470.066188,1357.429162 2466.048589,1363.004592 2459.707599,1367.932204 2452.175577,1370.697929 2444.150192,1371.073113 2436.394946,1368.998669 2429.626244,1364.691964 2424.488808,1358.534535 2421.459832,1351.112852 2420.823525,1343.128271 2422.644766,1335.329202 2426.750007,1328.443567 2432.758397,1323.124363"/>
    <poly id="210939719" type="building.hangar" color="255,230,230" fill="1" layer="-1.00" shape="2123.940681,829.096177 2141.057631,823.377040 2142.583689,827.912017 2125.459512,833.630866 2123.940681,829.096177"/>
    <poly id="213850285" type="building.office" color="255,230,230" fill="1" layer="-1.00" shape="1651.569927,861.669425 1671.640433,855.118107 1669.287772,849.649254 1695.524578,841.335350 1696.861738,846.630914 1716.004166,840.455348 1699.705653,793.006973 1684.639270,798.585012 1691.512928,825.637903 1663.620621,834.755408 1651.481707,809.411425 1635.309308,814.723704 1651.569927,861.669425"/>
    <poly id="213850448" type="amenity.university" color="237,199,199" fill="1" layer="-1.00" shape="1858.165688,1076.387846 1900.586539,1062.251760 1909.819033,1089.753613 1929.106821,1147.249833 1886.693756,1161.385965 1867.398360,1103.889622 1858.165688,1076.387846"/>
    <poly id="213850448#1" type="building.yes" color="255,230,230" fill="1" layer="-1.00" shape="1858.165688,1076.387846 1900.586539,1062.251760 1909.819033,1089.753613 1929.106821,1147.249833 1886.693756,1161.385965 1867.398360,1103.889622 1858.165688,1076.387846"/>
    <poly id="213851043" type="natural.wood" color="140,196,107" fill="1" layer="-4.00" shape="1224.043882,1390.945952 1243.821180,1383.669320 1244.439698,1382.123828 1243.528365,1381.142024 1223.157249,1388.773974 1222.796277,1390.407445 1224.043882,1390.945952"/>
    <poly id="217840005" type="leisure.park" color="207,245,201" fill="1" layer="-2.00" shape="2089.710955,778.995634 2062.012800,787.940658 2082.845780,852.811849 2085.530498,856.457095 2089.028987,857.651731 2113.653917,849.788723 2091.416848,783.938401 2090.393706,780.814678 2089.710955,778.995634"/>
    <poly id="217859674" type="building.yes" color="255,230,230" fill="1" layer="-1.00" shape="1591.031212,1075.534429 1593.105875,1080.324452 1588.725150,1081.856426 1583.231328,1079.593342 1569.330885,1038.116902 1573.918953,1036.659809 1571.757558,1030.007329 1572.774604,1029.768778 1572.436136,1028.597800 1575.116942,1027.711823 1576.790004,1034.801636 1580.336027,1040.528609 1585.377005,1044.733253 1590.110513,1046.788500 1591.057738,1048.706870 1596.699732,1048.849503 1597.772717,1053.299799 1585.907692,1057.121868 1590.509394,1070.337558 1591.031212,1075.534429"/>
    <poly id="218390405" type="building.office" color="255,230,230" fill="1" layer="-1.00" shape="2070.634884,653.722859 2061.567133,626.082489 2047.333636,630.734835 2040.325322,609.375842 2077.758797,597.171782 2093.835077,646.160123 2070.634884,653.722859"/>
    <poly id="223580924" type="amenity.parking" color="184,184,179" fill="1" layer="-1.00" shape="1506.962954,1670.437069 1510.304551,1679.529094 1528.036973,1691.543642 1535.556026,1664.975545 1531.018683,1659.955677 1506.962954,1670.437069"/>
    <poly id="223813244" type="amenity.parking" color="184,184,179" fill="1" layer="-1.00" shape="2714.330400,1364.452097 2711.913117,1362.319872 2647.200195,1432.716123 2635.271036,1441.487288 2618.322466,1444.795685 2611.047768,1451.345164 2600.752721,1455.059713 2584.502833,1458.484715 2568.006232,1464.315792 2558.648308,1475.180789 2552.983598,1484.854963 2549.926754,1494.208531 2547.656537,1513.066615 2547.755813,1524.013603 2549.675904,1532.159958 2549.058980,1540.484985 2545.757585,1545.175631 2550.166029,1548.844321 2555.026424,1553.187573 2558.301630,1549.163843 2566.742307,1547.068509 2575.927550,1543.365979 2582.674285,1537.519328 2606.096093,1514.282184 2707.193066,1406.975511 2711.379434,1401.907831 2713.954110,1395.607914 2714.330400,1364.452097"/>
    <poly id="223863064" type="natural.water" color="181,209,209" fill="1" layer="-4.00" shape="2425.052384,1375.021354 2413.480944,1338.665479 2377.211171,1350.133367 2388.782815,1386.489160 2425.052384,1375.021354"/>
    <poly id="227342466" type="landuse.grass" color="194,194,130" fill="1" layer="-3.00" shape="1283.940916,947.563515 1249.415593,930.697742 1286.808186,918.498065 1293.708077,939.350754 1292.681068,943.930508 1289.056281,947.084130 1283.940916,947.563515"/>
    <poly id="227346603" type="amenity.parking" color="184,184,179" fill="1" layer="-1.00" shape="1738.434419,628.629545 1739.371629,620.239121 1793.481124,589.103883 1792.802322,596.446852 1738.434419,628.629545"/>
    <poly id="227463584" type="leisure.park" color="207,245,201" fill="1" layer="-2.00" shape="2074.514739,731.244029 2070.655837,732.584575 2046.453826,740.375315 2030.316264,691.284523 2029.422176,688.566632 2054.125841,680.005064 2056.713232,679.104516 2074.514739,731.244029"/>
    <poly id="244039487" type="building.yes" color="255,230,230" fill="1" layer="-1.00" shape="1921.518315,1595.793898 1922.647169,1584.182632 1916.046427,1583.545659 1914.917588,1595.156926 1921.518315,1595.793898"/>
    <poly id="244039487#1" type="man_made.reservoir_covered" color="255,230,230" fill="1" layer="-1.00" shape="1921.518315,1595.793898 1922.647169,1584.182632 1916.046427,1583.545659 1914.917588,1595.156926 1921.518315,1595.793898"/>
    <poly id="244039487#2" type="natural.water" color="181,209,209" fill="1" layer="-4.00" shape="1921.518315,1595.793898 1922.647169,1584.182632 1916.046427,1583.545659 1914.917588,1595.156926 1921.518315,1595.793898"/>
    <poly id="250528813" type="building.train_station" color="255,230,230" fill="1" layer="-1.00" shape="1798.520530,615.038725 1800.185436,617.886918 1800.805942,618.890830 1801.534013,620.110463 1805.674282,626.773667 1806.247155,627.697791 1806.970594,628.850450 1809.159581,632.387085 1812.241291,630.526128 1816.057957,628.226376 1819.644555,626.062344 1847.246298,609.397663 1873.003926,592.616408 1878.539200,589.014695 1883.970521,585.475713 1908.738567,569.346078 1910.097973,567.217373 1909.947398,564.951636 1909.154187,563.729438 1908.627213,562.929554 1907.819958,561.695674 1904.543738,556.669251 1903.572308,555.184036 1902.924872,554.312645 1902.183639,553.059086 1900.071866,551.440178 1892.829319,550.867255 1882.849715,552.424793 1870.282954,555.617723 1866.397613,557.447200 1856.429899,561.665851 1851.022004,565.717860 1847.117666,570.997596 1844.585022,576.798564 1842.805458,581.883144 1840.103582,587.376922 1835.426246,592.771134 1833.473156,593.952649 1830.651754,595.645667 1798.520530,615.038725"/>
    <poly id="25691793" type="natural.water" color="181,209,209" fill="1" layer="-4.00" shape="2172.295951,1621.260786 2372.111889,1640.987647 2400.707799,1642.510657 2348.223619,1481.793306 2338.855333,1483.696731 2335.528978,1471.843903 2275.271322,1492.579641 2203.850754,1491.303924 2197.130170,1503.519715 2174.229834,1607.065009 2169.366191,1615.557515 2172.295951,1621.260786"/>