<routes xmlns:xsi="http://www.w3.org/2001/XMLSchema-instance" xsi:noNamespaceSchemaLocation="http://sumo.dlr.de/xsd/routes_file.xsd">
		<person id="1#0" depart="0" >
				<personTrip from="43662107" to="{destination_place_road_id}" modes="{transport}" />
		</person>
		<person id="1#1" depart="137" >
				<personTrip from="93359250" to="{destination_place_road_id}" modes="{transport}" />
		</person>
		<person id="1#2" depart="1885" >
				<personTrip from="42299163" to="{destination_place_road_id}" modes="{transport}" />
		</person>
		<person id="1#3" depart="3735" >
				<personTrip from="93359226" to="{destination_place_road_id}" modes="{transport}" />
		</person>
		<person id="1#4" depart="7996" >
				<personTrip from="353046118" to="{destination_place_road_id}" modes="{transport}" />
		</person>
		<person id="1#5" depart="10950" >
				<personTrip from="106888004" to="{destination_place_road_id}" modes="{transport}" />
		</person>
		<person id="1#6" depart="15908" >
				<personTrip from="69353459" to="{destination_place_road_id}" modes="{transport}" />
		</person>
		<person id="1#7" depart="17946" >
				<personTrip from="42299163" to="{destination_place_road_id}" modes="{transport}" />
		</person>
		<person id="1#8" depart="21806" >
				<personTrip from="42299654" to="{destination_place_road_id}" modes="{transport}" />
		</person>
		<person id="1#9" depart="26602" >
				<personTrip from="69353448" to="{destination_place_road_id}" modes="{transport}" />
		</person>
		<person id="1#10" depart="29693" >
				<personTrip from="43662057" to="{destination_place_road_id}" modes="{transport}" />
		</person>
		<person id="1#11" depart="32917" >
				<personTrip from="42299170" to="{destination_place_road_id}" modes="{transport}" />
		</person>
		<person id="1#12" depart="34151" >
				<personTrip from="42299170" to="{destination_place_road_id}" modes="{transport}" />
		</person>
		<person id="1#13" depart="37548" >
				<personTrip from="93359226" to="{destination_place_road_id}" modes="{transport}" />
		</person>
		<person id="1#14" depart="42615" >
				<personTrip from="28242894" to="{destination_place_road_id}" modes="{transport}" />
		</person>
		<person id="1#15" depart="46806" >
				<personTrip from="69357521" to="{destination_place_road_id}" modes="{transport}" />
		</person>
		<person id="1#16" depart="47954" >
				<personTrip from="43662107" to="{destination_place_road_id}" modes="{transport}" />
		</person>
		<person id="1#17" depart="49432" >
				<personTrip from="42299163" to="{destination_place_road_id}" modes="{transport}" />
		</person>
		<person id="1#18" depart="52806" >
				<personTrip from="69353456" to="{destination_place_road_id}" modes="{transport}" />
		</person>
		<person id="1#19" depart="58065" >
				<personTrip from="43662107" to="{destination_place_road_id}" modes="{transport}" />
		</person>
</routes>