<routes xmlns:xsi="http://www.w3.org/2001/XMLSchema-instance" xsi:noNamespaceSchemaLocation="http://sumo.dlr.de/xsd/routes_file.xsd">
		<person id="1#0" depart="0" >
				<personTrip from="28242894" to="{destination_place_road_id}" modes="{transport}" />
		</person>
		<person id="1#1" depart="361" >
				<personTrip from="353046118" to="{destination_place_road_id}" modes="{transport}" />
		</person>
		<person id="1#2" depart="1603" >
				<personTrip from="42299163" to="{destination_place_road_id}" modes="{transport}" />
		</person>
		<person id="1#3" depart="5701" >
				<personTrip from="43662107" to="{destination_place_road_id}" modes="{transport}" />
		</person>
		<person id="1#4" depart="6867" >
				<personTrip from="42299163" to="{destination_place_road_id}" modes="{transport}" />
		</person>
		<person id="1#5" depart="10824" >
				<personTrip from="93359226" to="{destination_place_road_id}" modes="{transport}" />
		</person>
		<person id="1#6" depart="14823" >
				<personTrip from="364154097" to="{destination_place_road_id}" modes="{transport}" />
		</person>
		<person id="1#7" depart="19436" >
				<personTrip from="43662107" to="{destination_place_road_id}" modes="{transport}" />
		</person>
		<person id="1#8" depart="20549" >
				<personTrip from="106888004" to="{destination_place_road_id}" modes="{transport}" />
		</person>
		<person id="1#9" depart="22688" >
				<personTrip from="43662107" to="{destination_place_road_id}" modes="{transport}" />
		</person>
		<person id="1#10" depart="25855" >
				<personTrip from="93359226" to="{destination_place_road_id}" modes="{transport}" />
		</person>
		<person id="1#11" depart="28565" >
				<personTrip from="353046118" to="{destination_place_road_id}" modes="{transport}" />
		</person>
		<person id="1#12" depart="34155" >
				<personTrip from="93359226" to="{destination_place_road_id}" modes="{transport}" />
		</person>
		<person id="1#13" depart="38622" >
				<personTrip from="28242894" to="{destination_place_road_id}" modes="{transport}" />
		</person>
		<person id="1#14" depart="43012" >
				<personTrip from="42299166" to="{destination_place_road_id}" modes="{transport}" />
		</person>
		<person id="1#15" depart="45467" >
				<personTrip from="43662107" to="{destination_place_road_id}" modes="{transport}" />
		</person>
		<person id="1#16" depart="47617" >
				<personTrip from="69353459" to="{destination_place_road_id}" modes="{transport}" />
		</person>
		<person id="1#17" depart="52064" >
				<personTrip from="93359250" to="{destination_place_road_id}" modes="{transport}" />
		</person>
		<person id="1#18" depart="52870" >
				<personTrip from="28242894" to="{destination_place_road_id}" modes="{transport}" />
		</person>
		<person id="1#19" depart="54442" >
				<personTrip from="42299166" to="{destination_place_road_id}" modes="{transport}" />
		</person>
		<person id="1#20" depart="56963" >
				<personTrip from="210939720" to="{destination_place_road_id}" modes="{transport}" />
		</person>
		<person id="1#21" depart="58351" >
				<personTrip from="43662057" to="{destination_place_road_id}" modes="{transport}" />
		</person>
</routes>