<routes xmlns:xsi="http://www.w3.org/2001/XMLSchema-instance" xsi:noNamespaceSchemaLocation="http://sumo.dlr.de/xsd/routes_file.xsd">
		<person id="1#0" depart="0" >
				<personTrip from="43662107" to="{destination_place_road_id}" modes="{transport}" />
		</person>
		<person id="1#1" depart="375" >
				<personTrip from="93359226" to="{destination_place_road_id}" modes="{transport}" />
		</person>
		<person id="1#2" depart="5863" >
				<personTrip from="43662107" to="{destination_place_road_id}" modes="{transport}" />
		</person>
		<person id="1#3" depart="9808" >
				<personTrip from="42299166" to="{destination_place_road_id}" modes="{transport}" />
		</person>
		<person id="1#4" depart="11504" >
				<personTrip from="162563271" to="{destination_place_road_id}" modes="{transport}" />
		</person>
		<person id="1#5" depart="13080" >
				<personTrip from="393764343" to="{destination_place_road_id}" modes="{transport}" />
		</person>
		<person id="1#6" depart="17504" >
				<personTrip from="93359226" to="{destination_place_road_id}" modes="{transport}" />
		</person>
		<person id="1#7" depart="22587" >
				<personTrip from="43662107" to="{destination_place_road_id}" modes="{transport}" />
		</person>
		<person id="1#8" depart="27503" >
				<personTrip from="69353459" to="{destination_place_road_id}" modes="{transport}" />
		</person>
		<person id="1#9" depart="28279" >
				<personTrip from="42299163" to="{destination_place_road_id}" modes="{transport}" />
		</person>
		<person id="1#10" depart="29601" >
				<personTrip from="43662107" to="{destination_place_road_id}" modes="{transport}" />
		</person>
		<person id="1#11" depart="32156" >
				<personTrip from="162563271" to="{destination_place_road_id}" modes="{transport}" />
		</person>
		<person id="1#12" depart="37722" >
				<personTrip from="42299170" to="{destination_place_road_id}" modes="{transport}" />
		</person>
		<person id="1#13" depart="41285" >
				<personTrip from="162561738" to="{destination_place_road_id}" modes="{transport}" />
		</person>
		<person id="1#14" depart="43380" >
				<personTrip from="93359226" to="{destination_place_road_id}" modes="{transport}" />
		</person>
		<person id="1#15" depart="47805" >
				<personTrip from="106888004" to="{destination_place_road_id}" modes="{transport}" />
		</person>
		<person id="1#16" depart="52923" >
				<personTrip from="28242894" to="{destination_place_road_id}" modes="{transport}" />
		</person>
		<person id="1#17" depart="54813" >
				<personTrip from="106888004" to="{destination_place_road_id}" modes="{transport}" />
		</person>
		<person id="1#18" depart="57302" >
				<personTrip from="42299170" to="{destination_place_road_id}" modes="{transport}" />
		</person>
		<person id="1#19" depart="58367" >
				<personTrip from="42299654" to="{destination_place_road_id}" modes="{transport}" />
		</person>
</routes>