<routes xmlns:xsi="http://www.w3.org/2001/XMLSchema-instance" xsi:noNamespaceSchemaLocation="http://sumo.dlr.de/xsd/routes_file.xsd">
		<person id="1#0" depart="262" >
				<personTrip from="533269774" to="42299170#0" modes="public" />
		</person>
		<person id="1#1" depart="7180" >
				<personTrip from="42299170#0" to="425555630#2" modes="public" />
		</person>
		<person id="1#2" depart="12054" >
				<personTrip from="425555630#2" to="303055947" modes="public" />
		</person>
		<person id="1#3" depart="18521" >
				<personTrip from="303055947" to="43662107#0" modes="public" />
		</person>
		<person id="1#4" depart="23579" >
				<personTrip from="43662107#0" to="393764290#1" modes="public" />
		</person>
		<person id="1#5" depart="30499" >
				<personTrip from="393764290#1" to="425555630#2" modes="public" />
		</person>
		<person id="1#6" depart="34017" >
				<personTrip from="425555630#2" to="407698812#0" modes="public" />
		</person>
		<person id="1#7" depart="36491" >
				<personTrip from="407698812#0" to="582546058" modes="public" />
		</person>
		<person id="1#8" depart="38651" >
				<personTrip from="582546058" to="683185824#0" modes="public" />
		</person>
		<person id="1#9" depart="40617" >
				<personTrip from="683185824#0" to="738204219" modes="public" />
		</person>
		<person id="1#10" depart="41951" >
				<personTrip from="738204219" to="407698812#0" modes="public" />
		</person>
		<person id="1#11" depart="45084" >
				<personTrip from="407698812#0" to="394662440" modes="public" />
		</person>
		<person id="1#12" depart="46118" >
				<personTrip from="394662440" to="393764306" modes="public" />
		</person>
		<person id="1#13" depart="48590" >
				<personTrip from="393764306" to="293181550#0" modes="public" />
		</person>
		<person id="1#14" depart="54004" >
				<personTrip from="293181550#0" to="683185824#0" modes="public" />
		</person>
		<person id="1#15" depart="57688" >
				<personTrip from="683185824#0" to="446729524" modes="public" />
		</person>
		<person id="1#16" depart="60599" >
				<personTrip from="446729524" to="533269774" modes="public" />
		</person>
		<person id="2#0" depart="107" >
				<personTrip from="162562779#0" to="630262536" modes="public" />
		</person>
		<person id="2#1" depart="4994" >
				<personTrip from="630262536" to="42299170#0" modes="public" />
		</person>
		<person id="2#2" depart="7446" >
				<personTrip from="42299170#0" to="482442757" modes="public" />
		</person>
		<person id="2#3" depart="14592" >
				<personTrip from="482442757" to="482442765#0" modes="public" />
		</person>
		<person id="2#4" depart="17364" >
				<personTrip from="482442765#0" to="394662440" modes="public" />
		</person>
		<person id="2#5" depart="22875" >
				<personTrip from="394662440" to="43662107#0" modes="public" />
		</person>
		<person id="2#6" depart="28441" >
				<personTrip from="43662107#0" to="393764306" modes="public" />
		</person>
		<person id="2#7" depart="32124" >
				<personTrip from="393764306" to="738219281" modes="public" />
		</person>
		<person id="2#8" depart="34986" >
				<personTrip from="738219281" to="479178953" modes="public" />
		</person>
		<person id="2#9" depart="39625" >
				<personTrip from="479178953" to="93359226#0" modes="public" />
		</person>
		<person id="2#10" depart="46332" >
				<personTrip from="93359226#0" to="353046109#0" modes="public" />
		</person>
		<person id="2#11" depart="48272" >
				<personTrip from="353046109#0" to="393835202" modes="public" />
		</person>
		<person id="2#12" depart="49589" >
				<personTrip from="393835202" to="393835202" modes="public" />
		</person>
		<person id="2#13" depart="55584" >
				<personTrip from="393835202" to="738204219" modes="public" />
		</person>
		<person id="2#14" depart="61480" >
				<personTrip from="738204219" to="162562779#0" modes="public" />
		</person>
		<person id="3#0" depart="117" >
				<personTrip from="533269774" to="479178957#0" modes="public" />
		</person>
		<person id="3#1" depart="2847" >
				<personTrip from="479178957#0" to="393764341#0" modes="public" />
		</person>
		<person id="3#2" depart="9415" >
				<personTrip from="393764341#0" to="293181550#0" modes="public" />
		</person>
		<person id="3#3" depart="10826" >
				<personTrip from="293181550#0" to="738204219" modes="public" />
		</person>
		<person id="3#4" depart="15848" >
				<personTrip from="738204219" to="630262535#0" modes="public" />
		</person>
		<person id="3#5" depart="21872" >
				<personTrip from="630262535#0" to="293181550#0" modes="public" />
		</person>
		<person id="3#6" depart="27148" >
				<personTrip from="293181550#0" to="43662107#0" modes="public" />
		</person>
		<person id="3#7" depart="31184" >
				<personTrip from="43662107#0" to="394660927#1" modes="public" />
		</person>
		<person id="3#8" depart="33416" >
				<personTrip from="394660927#1" to="575224401" modes="public" />
		</person>
		<person id="3#9" depart="38674" >
				<personTrip from="575224401" to="479178957#0" modes="public" />
		</person>
		<person id="3#10" depart="43338" >
				<personTrip from="479178957#0" to="393764312" modes="public" />
		</person>
		<person id="3#11" depart="45011" >
				<personTrip from="393764312" to="393835202" modes="public" />
		</person>
		<person id="3#12" depart="50468" >
				<personTrip from="393835202" to="738204219" modes="public" />
		</person>
		<person id="3#13" depart="56524" >
				<personTrip from="738204219" to="393835202" modes="public" />
		</person>
		<person id="3#14" depart="60992" >
				<personTrip from="393835202" to="533269774" modes="public" />
		</person>
		<person id="4#0" depart="398" >
				<personTrip from="162562779#0" to="162562140#0" modes="public" />
		</person>
		<person id="4#1" depart="6623" >
				<personTrip from="162562140#0" to="536208570" modes="public" />
		</person>
		<person id="4#2" depart="9721" >
				<personTrip from="536208570" to="393854027#0" modes="public" />
		</person>
		<person id="4#3" depart="16074" >
				<personTrip from="393854027#0" to="164439325#0" modes="public" />
		</person>
		<person id="4#4" depart="17104" >
				<personTrip from="164439325#0" to="217840002#0" modes="public" />
		</person>
		<person id="4#5" depart="18187" >
				<personTrip from="217840002#0" to="482442765#0" modes="public" />
		</person>
		<person id="4#6" depart="21850" >
				<personTrip from="482442765#0" to="575224401" modes="public" />
		</person>
		<person id="4#7" depart="23204" >
				<personTrip from="575224401" to="393764312" modes="public" />
		</person>
		<person id="4#8" depart="25034" >
				<personTrip from="393764312" to="533269773" modes="public" />
		</person>
		<person id="4#9" depart="28688" >
				<personTrip from="533269773" to="670024857" modes="public" />
		</person>
		<person id="4#10" depart="31821" >
				<personTrip from="670024857" to="479037388#1" modes="public" />
		</person>
		<person id="4#11" depart="35830" >
				<personTrip from="479037388#1" to="227350281#0" modes="public" />
		</person>
		<person id="4#12" depart="40568" >
				<personTrip from="227350281#0" to="393764306" modes="public" />
		</person>
		<person id="4#13" depart="43970" >
				<personTrip from="393764306" to="393764341#0" modes="public" />
		</person>
		<person id="4#14" depart="47964" >
				<personTrip from="393764341#0" to="394660927#1" modes="public" />
		</person>
		<person id="4#15" depart="55140" >
				<personTrip from="394660927#1" to="43662107#0" modes="public" />
		</person>
		<person id="4#16" depart="61958" >
				<personTrip from="43662107#0" to="162562779#0" modes="public" />
		</person>
		<person id="5#0" depart="162" >
				<personTrip from="533269774" to="630262536" modes="public" />
		</person>
		<person id="5#1" depart="1463" >
				<personTrip from="630262536" to="479178957#0" modes="public" />
		</person>
		<person id="5#2" depart="4641" >
				<personTrip from="479178957#0" to="479037390#0" modes="public" />
		</person>
		<person id="5#3" depart="9071" >
				<personTrip from="479037390#0" to="93359226#0" modes="public" />
		</person>
		<person id="5#4" depart="16049" >
				<personTrip from="93359226#0" to="393764290#1" modes="public" />
		</person>
		<person id="5#5" depart="22892" >
				<personTrip from="393764290#1" to="370817780" modes="public" />
		</person>
		<person id="5#6" depart="24545" >
				<personTrip from="370817780" to="582546059#0" modes="public" />
		</person>
		<person id="5#7" depart="29430" >
				<personTrip from="582546059#0" to="393764290#1" modes="public" />
		</person>
		<person id="5#8" depart="35712" >
				<personTrip from="393764290#1" to="482442757" modes="public" />
		</person>
		<person id="5#9" depart="38560" >
				<personTrip from="482442757" to="482442765#0" modes="public" />
		</person>
		<person id="5#10" depart="42735" >
				<personTrip from="482442765#0" to="162562140#0" modes="public" />
		</person>
		<person id="5#11" depart="46783" >
				<personTrip from="162562140#0" to="353178841#0" modes="public" />
		</person>
		<person id="5#12" depart="48376" >
				<personTrip from="353178841#0" to="479178957#0" modes="public" />
		</person>
		<person id="5#13" depart="51601" >
				<personTrip from="479178957#0" to="582546058" modes="public" />
		</person>
		<person id="5#14" depart="57313" >
				<personTrip from="582546058" to="293181550#0" modes="public" />
		</person>
		<person id="5#15" depart="64379" >
				<personTrip from="293181550#0" to="533269774" modes="public" />
		</person>
		<person id="6#0" depart="333" >
				<personTrip from="533269774" to="162562140#0" modes="public" />
		</person>
		<person id="6#1" depart="4567" >
				<personTrip from="162562140#0" to="479178957#0" modes="public" />
		</person>
		<person id="6#2" depart="8383" >
				<personTrip from="479178957#0" to="42299170#0" modes="public" />
		</person>
		<person id="6#3" depart="11873" >
				<personTrip from="42299170#0" to="393764306" modes="public" />
		</person>
		<person id="6#4" depart="18444" >
				<personTrip from="393764306" to="683185817" modes="public" />
		</person>
		<person id="6#5" depart="20026" >
				<personTrip from="683185817" to="575224401" modes="public" />
		</person>
		<person id="6#6" depart="25886" >
				<personTrip from="575224401" to="155291168" modes="public" />
		</person>
		<person id="6#7" depart="28411" >
				<personTrip from="155291168" to="43662107#0" modes="public" />
		</person>
		<person id="6#8" depart="32256" >
				<personTrip from="43662107#0" to="223812322" modes="public" />
		</person>
		<person id="6#9" depart="37646" >
				<personTrip from="223812322" to="533269775" modes="public" />
		</person>
		<person id="6#10" depart="41166" >
				<personTrip from="533269775" to="353046109#0" modes="public" />
		</person>
		<person id="6#11" depart="48170" >
				<personTrip from="353046109#0" to="353046109#0" modes="public" />
		</person>
		<person id="6#12" depart="51778" >
				<personTrip from="353046109#0" to="227350281#0" modes="public" />
		</person>
		<person id="6#13" depart="57588" >
				<personTrip from="227350281#0" to="393764312" modes="public" />
		</person>
		<person id="6#14" depart="61665" >
				<personTrip from="393764312" to="533269774" modes="public" />
		</person>
		<person id="7#0" depart="263" >
				<personTrip from="533269774" to="259196946#0" modes="public" />
		</person>
		<person id="7#1" depart="3900" >
				<personTrip from="259196946#0" to="533269770#0" modes="public" />
		</person>
		<person id="7#2" depart="5474" >
				<personTrip from="533269770#0" to="93359226#0" modes="public" />
		</person>
		<person id="7#3" depart="10180" >
				<personTrip from="93359226#0" to="425555630#2" modes="public" />
		</person>
		<person id="7#4" depart="12003" >
				<personTrip from="425555630#2" to="259196946#0" modes="public" />
		</person>
		<person id="7#5" depart="15101" >
				<personTrip from="259196946#0" to="379136812#0" modes="public" />
		</person>
		<person id="7#6" depart="17692" >
				<personTrip from="379136812#0" to="394662440" modes="public" />
		</person>
		<person id="7#7" depart="22345" >
				<personTrip from="394662440" to="370817780" modes="public" />
		</person>
		<person id="7#8" depart="23932" >
				<personTrip from="370817780" to="393764306" modes="public" />
		</person>
		<person id="7#9" depart="27811" >
				<personTrip from="393764306" to="43662107#0" modes="public" />
		</person>
		<person id="7#10" depart="34524" >
				<personTrip from="43662107#0" to="353046109#0" modes="public" />
		</person>
		<person id="7#11" depart="40482" >
				<personTrip from="353046109#0" to="42299170#0" modes="public" />
		</person>
		<person id="7#12" depart="44703" >
				<personTrip from="42299170#0" to="446729524" modes="public" />
		</person>
		<person id="7#13" depart="46764" >
				<personTrip from="446729524" to="482442757" modes="public" />
		</person>
		<person id="7#14" depart="53353" >
				<personTrip from="482442757" to="394660927#1" modes="public" />
		</person>
		<person id="7#15" depart="57542" >
				<personTrip from="394660927#1" to="162562140#0" modes="public" />
		</person>
		<person id="7#16" depart="62479" >
				<personTrip from="162562140#0" to="533269774" modes="public" />
		</person>
		<person id="8#0" depart="232" >
				<personTrip from="533269774" to="482442757" modes="public" />
		</person>
		<person id="8#1" depart="1802" >
				<personTrip from="482442757" to="533269774" modes="public" />
		</person>
		<person id="8#2" depart="2848" >
				<personTrip from="533269774" to="533269774" modes="public" />
		</person>
		<person id="8#3" depart="8099" >
				<personTrip from="533269774" to="670024857" modes="public" />
		</person>
		<person id="8#4" depart="9353" >
				<personTrip from="670024857" to="42299170#0" modes="public" />
		</person>
		<person id="8#5" depart="10908" >
				<personTrip from="42299170#0" to="630262535#0" modes="public" />
		</person>
		<person id="8#6" depart="16070" >
				<personTrip from="630262535#0" to="155291168" modes="public" />
		</person>
		<person id="8#7" depart="22448" >
				<personTrip from="155291168" to="407698812#0" modes="public" />
		</person>
		<person id="8#8" depart="29084" >
				<personTrip from="407698812#0" to="407698812#0" modes="public" />
		</person>
		<person id="8#9" depart="34275" >
				<personTrip from="407698812#0" to="370817780" modes="public" />
		</person>
		<person id="8#10" depart="38922" >
				<personTrip from="370817780" to="575224401" modes="public" />
		</person>
		<person id="8#11" depart="42037" >
				<personTrip from="575224401" to="536208570" modes="public" />
		</person>
		<person id="8#12" depart="46374" >
				<personTrip from="536208570" to="162562140#0" modes="public" />
		</person>
		<person id="8#13" depart="52810" >
				<personTrip from="162562140#0" to="393764290#1" modes="public" />
		</person>
		<person id="8#14" depart="56185" >
				<personTrip from="393764290#1" to="394010856" modes="public" />
		</person>
		<person id="8#15" depart="60825" >
				<personTrip from="394010856" to="533269774" modes="public" />
		</person>
		<person id="9#0" depart="389" >
				<personTrip from="533269774" to="393835202" modes="public" />
		</person>
		<person id="9#1" depart="5255" >
				<personTrip from="393835202" to="42299654#0" modes="public" />
		</person>
		<person id="9#2" depart="7792" >
				<personTrip from="42299654#0" to="479178957#0" modes="public" />
		</person>
		<person id="9#3" depart="11902" >
				<personTrip from="479178957#0" to="446729524" modes="public" />
		</person>
		<person id="9#4" depart="16931" >
				<personTrip from="446729524" to="155291168" modes="public" />
		</person>
		<person id="9#5" depart="21890" >
				<personTrip from="155291168" to="738219281" modes="public" />
		</person>
		<person id="9#6" depart="23244" >
				<personTrip from="738219281" to="393764306" modes="public" />
		</person>
		<person id="9#7" depart="25069" >
				<personTrip from="393764306" to="293181550#0" modes="public" />
		</person>
		<person id="9#8" depart="27356" >
				<personTrip from="293181550#0" to="446729524" modes="public" />
		</person>
		<person id="9#9" depart="29110" >
				<personTrip from="446729524" to="393835202" modes="public" />
		</person>
		<person id="9#10" depart="33395" >
				<personTrip from="393835202" to="393835202" modes="public" />
		</person>
		<person id="9#11" depart="36439" >
				<personTrip from="393835202" to="738204219" modes="public" />
		</person>
		<person id="9#12" depart="41764" >
				<personTrip from="738204219" to="511852937#0" modes="public" />
		</person>
		<person id="9#13" depart="48741" >
				<personTrip from="511852937#0" to="393835202" modes="public" />
		</person>
		<person id="9#14" depart="52105" >
				<personTrip from="393835202" to="42299170#0" modes="public" />
		</person>
		<person id="9#15" depart="55626" >
				<personTrip from="42299170#0" to="93359226#0" modes="public" />
		</person>
		<person id="9#16" depart="59547" >
				<personTrip from="93359226#0" to="393854027#0" modes="public" />
		</person>
		<person id="9#17" depart="61333" >
				<personTrip from="393854027#0" to="533269774" modes="public" />
		</person>
		<person id="10#0" depart="293" >
				<personTrip from="162562779#0" to="738219281" modes="public" />
		</person>
		<person id="10#1" depart="3964" >
				<personTrip from="738219281" to="446729524" modes="public" />
		</person>
		<person id="10#2" depart="5572" >
				<personTrip from="446729524" to="670024857" modes="public" />
		</person>
		<person id="10#3" depart="12188" >
				<personTrip from="670024857" to="303055947" modes="public" />
		</person>
		<person id="10#4" depart="16970" >
				<personTrip from="303055947" to="393764290#1" modes="public" />
		</person>
		<person id="10#5" depart="19446" >
				<personTrip from="393764290#1" to="393835202" modes="public" />
		</person>
		<person id="10#6" depart="20727" >
				<personTrip from="393835202" to="533269773" modes="public" />
		</person>
		<person id="10#7" depart="26192" >
				<personTrip from="533269773" to="164439325#0" modes="public" />
		</person>
		<person id="10#8" depart="27727" >
				<personTrip from="164439325#0" to="303055947" modes="public" />
		</person>
		<person id="10#9" depart="32962" >
				<personTrip from="303055947" to="738219281" modes="public" />
		</person>
		<person id="10#10" depart="38180" >
				<personTrip from="738219281" to="370817780" modes="public" />
		</person>
		<person id="10#11" depart="44932" >
				<personTrip from="370817780" to="93359226#0" modes="public" />
		</person>
		<person id="10#12" depart="48472" >
				<personTrip from="93359226#0" to="394662440" modes="public" />
		</person>
		<person id="10#13" depart="53358" >
				<personTrip from="394662440" to="407698812#0" modes="public" />
		</person>
		<person id="10#14" depart="55215" >
				<personTrip from="407698812#0" to="407698812#0" modes="public" />
		</person>
		<person id="10#15" depart="58186" >
				<personTrip from="407698812#0" to="162562140#0" modes="public" />
		</person>
		<person id="10#16" depart="63408" >
				<personTrip from="162562140#0" to="162562779#0" modes="public" />
		</person>
		<person id="11#0" depart="283" >
				<personTrip from="162562779#0" to="394662440" modes="public" />
		</person>
		<person id="11#1" depart="2887" >
				<personTrip from="394662440" to="482442765#0" modes="public" />
		</person>
		<person id="11#2" depart="7631" >
				<personTrip from="482442765#0" to="43662107#0" modes="public" />
		</person>
		<person id="11#3" depart="8571" >
				<personTrip from="43662107#0" to="93359226#0" modes="public" />
		</person>
		<person id="11#4" depart="10788" >
				<personTrip from="93359226#0" to="394662440" modes="public" />
		</person>
		<person id="11#5" depart="16638" >
				<personTrip from="394662440" to="43662107#0" modes="public" />
		</person>
		<person id="11#6" depart="19038" >
				<personTrip from="43662107#0" to="353046109#0" modes="public" />
		</person>
		<person id="11#7" depart="21100" >
				<personTrip from="353046109#0" to="408172599" modes="public" />
		</person>
		<person id="11#8" depart="24580" >
				<personTrip from="408172599" to="42299170#0" modes="public" />
		</person>
		<person id="11#9" depart="29869" >
				<personTrip from="42299170#0" to="223812322" modes="public" />
		</person>
		<person id="11#10" depart="34404" >
				<personTrip from="223812322" to="479037390#0" modes="public" />
		</person>
		<person id="11#11" depart="36918" >
				<personTrip from="479037390#0" to="370817780" modes="public" />
		</person>
		<person id="11#12" depart="43085" >
				<personTrip from="370817780" to="370817780" modes="public" />
		</person>
		<person id="11#13" depart="50203" >
				<personTrip from="370817780" to="379136812#0" modes="public" />
		</person>
		<person id="11#14" depart="57010" >
				<personTrip from="379136812#0" to="162562140#0" modes="public" />
		</person>
		<person id="11#15" depart="63964" >
				<personTrip from="162562140#0" to="162562779#0" modes="public" />
		</person>
		<person id="12#0" depart="336" >
				<personTrip from="533269774" to="630262535#0" modes="public" />
		</person>
		<person id="12#1" depart="3325" >
				<personTrip from="630262535#0" to="393764341#0" modes="public" />
		</person>
		<person id="12#2" depart="7648" >
				<personTrip from="393764341#0" to="479178953" modes="public" />
		</person>
		<person id="12#3" depart="9254" >
				<personTrip from="479178953" to="393854027#0" modes="public" />
		</person>
		<person id="12#4" depart="15604" >
				<personTrip from="393854027#0" to="42299170#0" modes="public" />
		</person>
		<person id="12#5" depart="22525" >
				<personTrip from="42299170#0" to="394010856" modes="public" />
		</person>
		<person id="12#6" depart="24039" >
				<personTrip from="394010856" to="303055947" modes="public" />
		</person>
		<person id="12#7" depart="25577" >
				<personTrip from="303055947" to="259196946#0" modes="public" />
		</person>
		<person id="12#8" depart="31321" >
				<personTrip from="259196946#0" to="425555630#2" modes="public" />
		</person>
		<person id="12#9" depart="36977" >
				<personTrip from="425555630#2" to="393764341#0" modes="public" />
		</person>
		<person id="12#10" depart="37888" >
				<personTrip from="393764341#0" to="582546059#0" modes="public" />
		</person>
		<person id="12#11" depart="43752" >
				<personTrip from="582546059#0" to="42299170#0" modes="public" />
		</person>
		<person id="12#12" depart="45475" >
				<personTrip from="42299170#0" to="393854027#0" modes="public" />
		</person>
		<person id="12#13" depart="52455" >
				<personTrip from="393854027#0" to="425555630#2" modes="public" />
		</person>
		<person id="12#14" depart="58618" >
				<personTrip from="425555630#2" to="479178957#0" modes="public" />
		</person>
		<person id="12#15" depart="64079" >
				<personTrip from="479178957#0" to="533269774" modes="public" />
		</person>
		<person id="13#0" depart="119" >
				<personTrip from="162562779#0" to="303055947" modes="public" />
		</person>
		<person id="13#1" depart="2201" >
				<personTrip from="303055947" to="533269775" modes="public" />
		</person>
		<person id="13#2" depart="4888" >
				<personTrip from="533269775" to="43662107#0" modes="public" />
		</person>
		<person id="13#3" depart="6801" >
				<personTrip from="43662107#0" to="533269773" modes="public" />
		</person>
		<person id="13#4" depart="9408" >
				<personTrip from="533269773" to="394660927#1" modes="public" />
		</person>
		<person id="13#5" depart="10626" >
				<personTrip from="394660927#1" to="479037388#1" modes="public" />
		</person>
		<person id="13#6" depart="16025" >
				<personTrip from="479037388#1" to="533269773" modes="public" />
		</person>
		<person id="13#7" depart="22836" >
				<personTrip from="533269773" to="42299654#0" modes="public" />
		</person>
		<person id="13#8" depart="30034" >
				<personTrip from="42299654#0" to="479178953" modes="public" />
		</person>
		<person id="13#9" depart="35460" >
				<personTrip from="479178953" to="738204219" modes="public" />
		</person>
		<person id="13#10" depart="38717" >
				<personTrip from="738204219" to="408172599" modes="public" />
		</person>
		<person id="13#11" depart="40040" >
				<personTrip from="408172599" to="425555630#2" modes="public" />
		</person>
		<person id="13#12" depart="44767" >
				<personTrip from="425555630#2" to="683185824#0" modes="public" />
		</person>
		<person id="13#13" depart="46339" >
				<personTrip from="683185824#0" to="293181550#0" modes="public" />
		</person>
		<person id="13#14" depart="50656" >
				<personTrip from="293181550#0" to="738204219" modes="public" />
		</person>
		<person id="13#15" depart="56622" >
				<personTrip from="738204219" to="259196946#0" modes="public" />
		</person>
		<person id="13#16" depart="58205" >
				<personTrip from="259196946#0" to="394662440" modes="public" />
		</person>
		<person id="13#17" depart="63637" >
				<personTrip from="394662440" to="162562779#0" modes="public" />
		</person>
		<person id="14#0" depart="206" >
				<personTrip from="575224401" to="479037390#0" modes="public" />
		</person>
		<person id="14#1" depart="4378" >
				<personTrip from="479037390#0" to="393854027#0" modes="public" />
		</person>
		<person id="14#2" depart="8542" >
				<personTrip from="393854027#0" to="217840002#0" modes="public" />
		</person>
		<person id="14#3" depart="12755" >
				<personTrip from="217840002#0" to="393764341#0" modes="public" />
		</person>
		<person id="14#4" depart="16552" >
				<personTrip from="393764341#0" to="259196946#0" modes="public" />
		</person>
		<person id="14#5" depart="21196" >
				<personTrip from="259196946#0" to="482442757" modes="public" />
		</person>
		<person id="14#6" depart="22637" >
				<personTrip from="482442757" to="393854027#0" modes="public" />
		</person>
		<person id="14#7" depart="29042" >
				<personTrip from="393854027#0" to="393764341#0" modes="public" />
		</person>
		<person id="14#8" depart="31410" >
				<personTrip from="393764341#0" to="425555630#2" modes="public" />
		</person>
		<person id="14#9" depart="35338" >
				<personTrip from="425555630#2" to="353046109#0" modes="public" />
		</person>
		<person id="14#10" depart="36387" >
				<personTrip from="353046109#0" to="42299170#0" modes="public" />
		</person>
		<person id="14#11" depart="37302" >
				<personTrip from="42299170#0" to="43662107#0" modes="public" />
		</person>
		<person id="14#12" depart="41263" >
				<personTrip from="43662107#0" to="511852937#0" modes="public" />
		</person>
		<person id="14#13" depart="45664" >
				<personTrip from="511852937#0" to="259196946#0" modes="public" />
		</person>
		<person id="14#14" depart="51837" >
				<personTrip from="259196946#0" to="511852937#0" modes="public" />
		</person>
		<person id="14#15" depart="56128" >
				<personTrip from="511852937#0" to="630262535#0" modes="public" />
		</person>
		<person id="14#16" depart="59599" >
				<personTrip from="630262535#0" to="393854027#0" modes="public" />
		</person>
		<person id="14#17" depart="64395" >
				<personTrip from="393854027#0" to="575224401" modes="public" />
		</person>
		<person id="15#0" depart="178" >
				<personTrip from="533269774" to="683185824#0" modes="public" />
		</person>
		<person id="15#1" depart="4280" >
				<personTrip from="683185824#0" to="394662443" modes="public" />
		</person>
		<person id="15#2" depart="5262" >
				<personTrip from="394662443" to="533269773" modes="public" />
		</person>
		<person id="15#3" depart="7711" >
				<personTrip from="533269773" to="511852937#0" modes="public" />
		</person>
		<person id="15#4" depart="13164" >
				<personTrip from="511852937#0" to="42299654#0" modes="public" />
		</person>
		<person id="15#5" depart="14936" >
				<personTrip from="42299654#0" to="533269770#0" modes="public" />
		</person>
		<person id="15#6" depart="20807" >
				<personTrip from="533269770#0" to="93359226#0" modes="public" />
		</person>
		<person id="15#7" depart="26089" >
				<personTrip from="93359226#0" to="155291168" modes="public" />
		</person>
		<person id="15#8" depart="28159" >
				<personTrip from="155291168" to="482442765#0" modes="public" />
		</person>
		<person id="15#9" depart="31288" >
				<personTrip from="482442765#0" to="670024857" modes="public" />
		</person>
		<person id="15#10" depart="33178" >
				<personTrip from="670024857" to="42299170#0" modes="public" />
		</person>
		<person id="15#11" depart="35352" >
				<personTrip from="42299170#0" to="217840002#0" modes="public" />
		</person>
		<person id="15#12" depart="38164" >
				<personTrip from="217840002#0" to="353178841#0" modes="public" />
		</person>
		<person id="15#13" depart="41424" >
				<personTrip from="353178841#0" to="630262535#0" modes="public" />
		</person>
		<person id="15#14" depart="43794" >
				<personTrip from="630262535#0" to="425555630#2" modes="public" />
		</person>
		<person id="15#15" depart="48363" >
				<personTrip from="425555630#2" to="446729524" modes="public" />
		</person>
		<person id="15#16" depart="55322" >
				<personTrip from="446729524" to="379136812#0" modes="public" />
		</person>
		<person id="15#17" depart="60459" >
				<personTrip from="379136812#0" to="533269774" modes="public" />
		</person>
		<person id="16#0" depart="226" >
				<personTrip from="533269774" to="379136812#0" modes="public" />
		</person>
		<person id="16#1" depart="1687" >
				<personTrip from="379136812#0" to="408172599" modes="public" />
		</person>
		<person id="16#2" depart="7783" >
				<personTrip from="408172599" to="42299170#0" modes="public" />
		</person>
		<person id="16#3" depart="13635" >
				<personTrip from="42299170#0" to="259196946#0" modes="public" />
		</person>
		<person id="16#4" depart="20516" >
				<personTrip from="259196946#0" to="394660927#1" modes="public" />
		</person>
		<person id="16#5" depart="24585" >
				<personTrip from="394660927#1" to="370817780" modes="public" />
		</person>
		<person id="16#6" depart="29226" >
				<personTrip from="370817780" to="379136812#0" modes="public" />
		</person>