<?xml version="1.0" encoding="UTF-8"?>

<!-- generated on 2023-10-30 20:33:01 by Eclipse SUMO duarouter Version 1.12.0
<configuration xmlns:xsi="http://www.w3.org/2001/XMLSchema-instance" xsi:noNamespaceSchemaLocation="http://sumo.dlr.de/xsd/duarouterConfiguration.xsd">

    <input>
        <net-file value="/home/yanncauchepin/Git/PublicProjects/EpidemicDigitalization/Code/Modules/SumoMobility/SumoFiles/network.net.xml"/>
        <additional-files value="/home/yanncauchepin/Git/PublicProjects/EpidemicDigitalization/Code/Modules/SumoMobility/SumoFiles/pt.stops.xml"/>
        <route-files value="/home/yanncauchepin/Git/PublicProjects/EpidemicDigitalization/Code/Modules/SumoMobility/SumoFiles/default.2.people.trips.xml"/>
    </input>

    <output>
        <output-file value="/home/yanncauchepin/Git/PublicProjects/EpidemicDigitalization/Code/Modules/SumoMobility/SumoFiles/default.2.people.temp.routes.xml"/>
        <alternatives-output value="/home/yanncauchepin/Git/PublicProjects/EpidemicDigitalization/Code/Modules/SumoMobility/SumoFiles/default.2.people.temp.alt.routes.xml"/>
    </output>

    <processing>
        <repair value="true"/>
        <routing-threads value="40"/>
        <ptline-routing value="true"/>
    </processing>

    <report>
        <ignore-errors value="true"/>
    </report>

</configuration>
-->

<routes xmlns:xsi="http://www.w3.org/2001/XMLSchema-instance" xsi:noNamespaceSchemaLocation="http://sumo.dlr.de/xsd/routes_file.xsd">
    <person id="1#0" depart="262.00">
        <personTrip from="533269774" to="42299170#0" modes="public" walkFactor="0.75" costs="527.92"/>
    </person>
    <person id="1#1" depart="7180.00">
        <personTrip from="42299170#0" to="425555630#2" modes="public" walkFactor="0.75" costs="332.24"/>
    </person>
    <person id="1#2" depart="12054.00">
        <personTrip from="425555630#2" to="303055947" modes="public" walkFactor="0.75" costs="683.74"/>
    </person>
    <person id="1#3" depart="18521.00">
        <personTrip from="303055947" to="43662107#0" modes="public" walkFactor="0.75" costs="902.33"/>
    </person>
    <person id="1#4" depart="23579.00">
        <personTrip from="43662107#0" to="393764290#1" modes="public" walkFactor="0.75" costs="140.38"/>
    </person>
    <person id="1#5" depart="30499.00">
        <personTrip from="393764290#1" to="425555630#2" modes="public" walkFactor="0.75" costs="620.48"/>
    </person>
    <person id="1#6" depart="34017.00">
        <personTrip from="425555630#2" to="407698812#0" modes="public" walkFactor="0.75" costs="435.05"/>
    </person>
    <person id="1#7" depart="36491.00">
        <personTrip from="407698812#0" to="582546058" modes="public" walkFactor="0.75" costs="450.74"/>
    </person>
    <person id="1#8" depart="38651.00">
        <personTrip from="582546058" to="683185824#0" modes="public" walkFactor="0.75" costs="616.21"/>
    </person>
    <person id="1#9" depart="40617.00">
        <personTrip from="683185824#0" to="738204219" modes="public" walkFactor="0.75" costs="319.01"/>
    </person>
    <person id="1#10" depart="41951.00">
        <personTrip from="738204219" to="407698812#0" modes="public" walkFactor="0.75" costs="351.60"/>
    </person>
    <person id="1#11" depart="45084.00">
        <personTrip from="407698812#0" to="394662440" modes="public" walkFactor="0.75" costs="240.38"/>
    </person>
    <person id="1#12" depart="46118.00">
        <personTrip from="394662440" to="393764306" modes="public" walkFactor="0.75" costs="339.25"/>
    </person>
    <person id="1#13" depart="48590.00">
        <personTrip from="393764306" to="293181550#0" modes="public" walkFactor="0.75" costs="504.89"/>
    </person>
    <person id="1#14" depart="54004.00">
        <personTrip from="293181550#0" to="683185824#0" modes="public" walkFactor="0.75" costs="450.26"/>
    </person>
    <person id="1#15" depart="57688.00">
        <personTrip from="683185824#0" to="446729524" modes="public" walkFactor="0.75" costs="460.95"/>
    </person>
    <person id="2#0" depart="107.00">
        <personTrip from="162562779#0" to="630262536" modes="public" walkFactor="0.75" costs="499.81"/>
    </person>
    <person id="2#1" depart="4994.00">
        <personTrip from="630262536" to="42299170#0" modes="public" walkFactor="0.75" costs="421.56"/>
    </person>
    <person id="2#2" depart="7446.00">
        <personTrip from="42299170#0" to="482442757" modes="public" walkFactor="0.75" costs="191.39"/>
    </person>
    <person id="2#3" depart="14592.00">
        <personTrip from="482442757" to="482442765#0" modes="public" walkFactor="0.75" costs="219.93"/>
    </person>
    <person id="2#4" depart="17364.00">
        <personTrip from="482442765#0" to="394662440" modes="public" walkFactor="0.75" costs="318.54"/>
    </person>
    <person id="2#5" depart="22875.00">
        <personTrip from="394662440" to="43662107#0" modes="public" walkFactor="0.75" costs="515.64"/>
    </person>
    <person id="2#6" depart="28441.00">
        <personTrip from="43662107#0" to="393764306" modes="public" walkFactor="0.75" costs="216.86"/>
    </person>
    <person id="2#7" depart="32124.00">
        <personTrip from="393764306" to="738219281" modes="public" walkFactor="0.75" costs="454.32"/>
    </person>
    <person id="2#8" depart="34986.00">
        <personTrip from="738219281" to="479178953" modes="public" walkFactor="0.75" costs="614.62"/>
    </person>
    <person id="2#9" depart="39625.00">
        <personTrip from="479178953" to="93359226#0" modes="public" walkFactor="0.75" costs="712.40"/>
    </person>
    <person id="2#10" depart="46332.00">
        <personTrip from="93359226#0" to="353046109#0" modes="public" walkFactor="0.75" costs="515.79"/>
    </person>
    <person id="2#11" depart="48272.00">
        <personTrip from="353046109#0" to="393835202" modes="public" walkFactor="0.75" costs="519.88"/>
    </person>
    <person id="2#12" depart="49589.00">
        <personTrip from="393835202" to="393835202" modes="public" walkFactor="0.75" costs="0.00"/>
    </person>
    <person id="2#13" depart="55584.00">
        <personTrip from="393835202" to="738204219" modes="public" walkFactor="0.75" costs="803.12"/>
    </person>
    <person id="1#16" depart="60599.00">
        <personTrip from="446729524" to="533269774" modes="public" walkFactor="0.75" costs="571.95"/>
    </person>
    <person id="3#0" depart="117.00">
        <personTrip from="533269774" to="479178957#0" modes="public" walkFactor="0.75" costs="284.19"/>
    </person>
    <person id="4#0" depart="398.00">
        <personTrip from="162562779#0" to="162562140#0" modes="public" walkFactor="0.75" costs="2.07"/>
    </person>
    <person id="3#1" depart="2847.00">
        <personTrip from="479178957#0" to="393764341#0" modes="public" walkFactor="0.75" costs="253.99"/>
    </person>
    <person id="4#1" depart="6623.00">
        <personTrip from="162562140#0" to="536208570" modes="public" walkFactor="0.75" costs="609.47"/>
    </person>
    <person id="3#2" depart="9415.00">
        <personTrip from="393764341#0" to="293181550#0" modes="public" walkFactor="0.75" costs="253.46"/>
    </person>
    <person id="4#2" depart="9721.00">
        <personTrip from="536208570" to="393854027#0" modes="public" walkFactor="0.75" costs="513.07"/>
    </person>
    <person id="3#3" depart="10826.00">
        <personTrip from="293181550#0" to="738204219" modes="public" walkFactor="0.75" costs="419.70"/>
    </person>
    <person id="3#4" depart="15848.00">
        <personTrip from="738204219" to="630262535#0" modes="public" walkFactor="0.75" costs="398.55"/>
    </person>
    <person id="4#3" depart="16074.00">
        <personTrip from="393854027#0" to="164439325#0" modes="public" walkFactor="0.75" costs="933.07"/>
    </person>
    <person id="4#4" depart="17104.00">
        <personTrip from="164439325#0" to="217840002#0" modes="public" walkFactor="0.75" costs="1004.83"/>
    </person>
    <person id="4#5" depart="18187.00">
        <personTrip from="217840002#0" to="482442765#0" modes="public" walkFactor="0.75" costs="169.75"/>
    </person>
    <person id="4#6" depart="21850.00">
        <personTrip from="482442765#0" to="575224401" modes="public" walkFactor="0.75" costs="603.29"/>
    </person>
    <person id="3#5" depart="21872.00">
        <personTrip from="630262535#0" to="293181550#0" modes="public" walkFactor="0.75" costs="333.41"/>
    </person>
    <person id="4#7" depart="23204.00">
        <personTrip from="575224401" to="393764312" modes="public" walkFactor="0.75" costs="581.64"/>
    </person>
    <person id="4#8" depart="25034.00">
        <personTrip from="393764312" to="533269773" modes="public" walkFactor="0.75" costs="443.89"/>
    </person>
    <person id="3#6" depart="27148.00">
        <personTrip from="293181550#0" to="43662107#0" modes="public" walkFactor="0.75" costs="582.43"/>
    </person>
    <person id="4#9" depart="28688.00">
        <personTrip from="533269773" to="670024857" modes="public" walkFactor="0.75" costs="502.96"/>
    </person>
    <person id="3#7" depart="31184.00">
        <personTrip from="43662107#0" to="394660927#1" modes="public" walkFactor="0.75" costs="278.77"/>
    </person>
    <person id="4#10" depart="31821.00">
        <personTrip from="670024857" to="479037388#1" modes="public" walkFactor="0.75" costs="426.10"/>
    </person>
    <person id="3#8" depart="33416.00">
        <personTrip from="394660927#1" to="575224401" modes="public" walkFactor="0.75" costs="151.97"/>
    </person>
    <person id="4#11" depart="35830.00">
        <personTrip from="479037388#1" to="227350281#0" modes="public" walkFactor="0.75" costs="331.98"/>
    </person>
    <person id="3#9" depart="38674.00">
        <personTrip from="575224401" to="479178957#0" modes="public" walkFactor="0.75" costs="544.38"/>
    </person>
    <person id="4#12" depart="40568.00">
        <personTrip from="227350281#0" to="393764306" modes="public" walkFactor="0.75" costs="325.54"/>
    </person>
    <person id="3#10" depart="43338.00">
        <personTrip from="479178957#0" to="393764312" modes="public" walkFactor="0.75" costs="275.71"/>
    </person>
    <person id="4#13" depart="43970.00">
        <personTrip from="393764306" to="393764341#0" modes="public" walkFactor="0.75" costs="464.84"/>
    </person>
    <person id="3#11" depart="45011.00">
        <personTrip from="393764312" to="393835202" modes="public" walkFactor="0.75" costs="383.97"/>
    </person>
    <person id="4#14" depart="47964.00">
        <personTrip from="393764341#0" to="394660927#1" modes="public" walkFactor="0.75" costs="411.50"/>
    </person>
    <person id="3#12" depart="50468.00">
        <personTrip from="393835202" to="738204219" modes="public" walkFactor="0.75" costs="803.12"/>
    </person>
    <person id="4#15" depart="55140.00">
        <personTrip from="394660927#1" to="43662107#0" modes="public" walkFactor="0.75" costs="278.77"/>
    </person>
    <person id="3#13" depart="56524.00">
        <personTrip from="738204219" to="393835202" modes="public" walkFactor="0.75" costs="803.12"/>
    </person>
    <person id="3#14" depart="60992.00">
        <personTrip from="393835202" to="533269774" modes="public" walkFactor="0.75" costs="822.95"/>
    </person>
    <person id="2#14" depart="61480.00">
        <personTrip from="738204219" to="162562779#0" modes="public" walkFactor="0.75" costs="262.33"/>
    </person>
    <person id="5#0" depart="162.00">
        <personTrip from="533269774" to="630262536" modes="public" walkFactor="0.75" costs="466.92"/>
    </person>
    <person id="5#1" depart="1463.00">
        <personTrip from="630262536" to="479178957#0" modes="public" walkFactor="0.75" costs="303.65"/>
    </person>
    <person id="5#2" depart="4641.00">
        <personTrip from="479178957#0" to="479037390#0" modes="public" walkFactor="0.75" costs="273.33"/>
    </person>
    <person id="5#3" depart="9071.00">
        <personTrip from="479037390#0" to="93359226#0" modes="public" walkFactor="0.75" costs="753.10"/>
    </person>
    <person id="5#4" depart="16049.00">
        <personTrip from="93359226#0" to="393764290#1" modes="public" walkFactor="0.75" costs="969.32"/>
    </person>
    <person id="5#5" depart="22892.00">
        <personTrip from="393764290#1" to="370817780" modes="public" walkFactor="0.75" costs="140.38"/>
    </person>
    <person id="5#6" depart="24545.00">
        <personTrip from="370817780" to="582546059#0" modes="public" walkFactor="0.75" costs="677.34"/>
    </person>
    <person id="5#7" depart="29430.00">
        <personTrip from="582546059#0" to="393764290#1" modes="public" walkFactor="0.75" costs="798.68"/>
    </person>
    <person id="5#8" depart="35712.00">
        <personTrip from="393764290#1" to="482442757" modes="public" walkFactor="0.75" costs="629.93"/>
    </person>
    <person id="5#9" depart="38560.00">
        <personTrip from="482442757" to="482442765#0" modes="public" walkFactor="0.75" costs="219.93"/>
    </person>
    <person id="5#10" depart="42735.00">
        <personTrip from="482442765#0" to="162562140#0" modes="public" walkFactor="0.75" costs="615.34"/>
    </person>
    <person id="5#11" depart="46783.00">
        <personTrip from="162562140#0" to="353178841#0" modes="public" walkFactor="0.75" costs="860.29"/>
    </person>
    <person id="5#12" depart="48376.00">
        <personTrip from="353178841#0" to="479178957#0" modes="public" walkFactor="0.75" costs="202.18"/>
    </person>
    <person id="5#13" depart="51601.00">
        <personTrip from="479178957#0" to="582546058" modes="public" walkFactor="0.75" costs="781.15"/>
    </person>
    <person id="5#14" depart="57313.00">
        <personTrip from="582546058" to="293181550#0" modes="public" walkFactor="0.75" costs="278.77"/>
    </person>
    <person id="4#16" depart="61958.00">
        <personTrip from="43662107#0" to="162562779#0" modes="public" walkFactor="0.75" costs="20.78"/>
    </person>
    <person id="24#0" depart="118.00">
        <personTrip from="162562779#0" to="42299170#0" modes="public" walkFactor="0.75" costs="900.71"/>
    </person>
    <person id="13#0" depart="119.00">
        <personTrip from="162562779#0" to="303055947" modes="public" walkFactor="0.75" costs="923.12"/>
    </person>
    <person id="18#0" depart="129.00">
        <personTrip from="533269774" to="353046109#0" modes="public" walkFactor="0.75" costs="653.00"/>
    </person>
    <person id="20#0" depart="166.00">
        <personTrip from="533269774" to="394010856" modes="public" walkFactor="0.75" costs="603.82"/>
    </person>
    <person id="15#0" depart="178.00">
        <personTrip from="533269774" to="683185824#0" modes="public" walkFactor="0.75" costs="524.72"/>
    </person>
    <person id="25#0" depart="181.00">
        <personTrip from="162562779#0" to="42299654#0" modes="public" walkFactor="0.75" costs="596.16"/>
    </person>
    <person id="14#0" depart="206.00">
        <personTrip from="575224401" to="479037390#0" modes="public" walkFactor="0.75" costs="816.78"/>
    </person>
    <person id="22#0" depart="216.00">
        <personTrip from="575224401" to="630262535#0" modes="public" walkFactor="0.75" costs="479.96"/>
    </person>
    <person id="16#0" depart="226.00">
        <personTrip from="533269774" to="379136812#0" modes="public" walkFactor="0.75" costs="241.11"/>
    </person>
    <person id="8#0" depart="232.00">
        <personTrip from="533269774" to="482442757" modes="public" walkFactor="0.75" costs="366.81"/>
    </person>
    <person id="7#0" depart="263.00">
        <personTrip from="533269774" to="259196946#0" modes="public" walkFactor="0.75" costs="730.37"/>
    </person>
    <person id="19#0" depart="271.00">
        <personTrip from="533269774" to="575224401" modes="public" walkFactor="0.75" costs="504.25"/>
    </person>
    <person id="21#0" depart="272.00">
        <personTrip from="575224401" to="536208570" modes="public" walkFactor="0.75" costs="597.42"/>
    </person>
    <person id="11#0" depart="283.00">
        <personTrip from="162562779#0" to="394662440" modes="public" walkFactor="0.75" costs="536.42"/>
    </person>
    <person id="10#0" depart="293.00">
        <personTrip from="162562779#0" to="738219281" modes="public" walkFactor="0.75" costs="552.64"/>
    </person>
    <person id="17#0" depart="312.00">
        <personTrip from="575224401" to="223812322" modes="public" walkFactor="0.75" costs="800.19"/>
    </person>
    <person id="6#0" depart="333.00">
        <personTrip from="533269774" to="162562140#0" modes="public" walkFactor="0.75" costs="521.15"/>
    </person>
    <person id="12#0" depart="336.00">
        <personTrip from="533269774" to="630262535#0" modes="public" walkFactor="0.75" costs="355.31"/>
    </person>
    <person id="23#0" depart="344.00">
        <personTrip from="533269774" to="394662443" modes="public" walkFactor="0.75" costs="311.03"/>
    </person>
    <person id="27#0" depart="361.00">
        <personTrip from="533269774" to="393835202" modes="public" walkFactor="0.75" costs="822.95"/>
    </person>
    <person id="26#0" depart="371.00">
        <personTrip from="533269774" to="479037388#1" modes="public" walkFactor="0.75" costs="301.19"/>
    </person>
    <person id="9#0" depart="389.00">
        <personTrip from="533269774" to="393835202" modes="public" walkFactor="0.75" costs="822.95"/>
    </person>
    <person id="18#1" depart="1421.00">
        <personTrip from="353046109#0" to="533269773" modes="public" walkFactor="0.75" costs="657.91"/>
    </person>
    <person id="24#1" depart="1502.00">
        <personTrip from="42299170#0" to="533269773" modes="public" walkFactor="0.75" costs="519.44"/>
    </person>
    <person id="16#1" depart="1687.00">
        <personTrip from="379136812#0" to="408172599" modes="public" walkFactor="0.75" costs="436.66"/>
    </person>
    <person id="8#1" depart="1802.00">
        <personTrip from="482442757" to="533269774" modes="public" walkFactor="0.75" costs="366.81"/>
    </person>
    <person id="13#1" depart="2201.00">
        <personTrip from="303055947" to="533269775" modes="public" walkFactor="0.75" costs="817.69"/>
    </person>
    <person id="25#1" depart="2323.00">
        <personTrip from="42299654#0" to="393764306" modes="public" walkFactor="0.75" costs="399.00"/>
    </person>
    <person id="8#2" depart="2848.00">
        <personTrip from="533269774" to="533269774" modes="public" walkFactor="0.75" costs="0.00"/>
    </person>
    <person id="11#1" depart="2887.00">
        <personTrip from="394662440" to="482442765#0" modes="public" walkFactor="0.75" costs="318.54"/>
    </person>
    <person id="17#1" depart="3239.00">
        <personTrip from="223812322" to="683185824#0" modes="public" walkFactor="0.75" costs="641.75"/>
    </person>
    <person id="12#1" depart="3325.00">
        <personTrip from="630262535#0" to="393764341#0" modes="public" walkFactor="0.75" costs="79.95"/>
    </person>
    <person id="24#2" depart="3803.00">
        <personTrip from="533269773" to="393835202" modes="public" walkFactor="0.75" costs="827.86"/>
    </person>
    <person id="7#1" depart="3900.00">
        <personTrip from="259196946#0" to="533269770#0" modes="public" walkFactor="0.75" costs="580.07"/>
    </person>
    <person id="21#1" depart="3915.00">
        <personTrip from="536208570" to="42299654#0" modes="public" walkFactor="0.75" costs="550.44"/>
    </person>
    <person id="19#1" depart="3926.00">
        <personTrip from="575224401" to="482442765#0" modes="public" walkFactor="0.75" costs="603.29"/>
    </person>
    <person id="25#2" depart="3944.00">
        <personTrip from="393764306" to="393835202" modes="public" walkFactor="0.75" costs="870.54"/>
    </person>
    <person id="10#1" depart="3964.00">
        <personTrip from="738219281" to="446729524" modes="public" walkFactor="0.75" costs="511.08"/>
    </person>
    <person id="15#1" depart="4280.00">
        <personTrip from="683185824#0" to="394662443" modes="public" walkFactor="0.75" costs="275.97"/>
    </person>
    <person id="23#1" depart="4361.00">
        <personTrip from="394662443" to="479178953" modes="public" walkFactor="0.75" costs="204.57"/>
    </person>
    <person id="14#1" depart="4378.00">
        <personTrip from="479037390#0" to="393854027#0" modes="public" walkFactor="0.75" costs="224.37"/>
    </person>
    <person id="6#1" depart="4567.00">
        <personTrip from="162562140#0" to="479178957#0" modes="public" walkFactor="0.75" costs="659.04"/>
    </person>
    <person id="22#1" depart="4684.00">
        <personTrip from="630262535#0" to="482442757" modes="public" walkFactor="0.75" costs="142.79"/>
    </person>
    <person id="26#1" depart="4704.00">
        <personTrip from="479037388#1" to="408172599" modes="public" walkFactor="0.75" costs="354.68"/>
    </person>
    <person id="20#1" depart="4834.00">
        <personTrip from="394010856" to="164439325#0" modes="public" walkFactor="0.75" costs="982.40"/>
    </person>
    <person id="13#2" depart="4888.00">
        <personTrip from="533269775" to="43662107#0" modes="public" walkFactor="0.75" costs="589.71"/>
    </person>
    <person id="9#1" depart="5255.00">
        <personTrip from="393835202" to="42299654#0" modes="public" walkFactor="0.75" costs="583.32"/>
    </person>
    <person id="15#2" depart="5262.00">
        <personTrip from="394662443" to="533269773" modes="public" walkFactor="0.75" costs="315.94"/>
    </person>
    <person id="7#2" depart="5474.00">
        <personTrip from="533269770#0" to="93359226#0" modes="public" walkFactor="0.75" costs="651.84"/>
    </person>
    <person id="10#2" depart="5572.00">
        <personTrip from="446729524" to="670024857" modes="public" walkFactor="0.75" costs="86.96"/>
    </person>
    <person id="21#2" depart="6302.00">
        <personTrip from="42299654#0" to="533269775" modes="public" walkFactor="0.75" costs="297.89"/>
    </person>
    <person id="27#1" depart="6759.00">
        <personTrip from="393835202" to="162562140#0" modes="public" walkFactor="0.75" costs="988.70"/>
    </person>
    <person id="13#3" depart="6801.00">
        <personTrip from="43662107#0" to="533269773" modes="public" walkFactor="0.75" costs="541.85"/>
    </person>
    <person id="18#2" depart="7369.00">
        <personTrip from="533269773" to="479178957#0" modes="public" walkFactor="0.75" costs="275.70"/>
    </person>
    <person id="20#2" depart="7385.00">
        <personTrip from="164439325#0" to="393764341#0" modes="public" walkFactor="0.75" costs="815.98"/>
    </person>
    <person id="19#2" depart="7430.00">
        <personTrip from="482442765#0" to="393764312" modes="public" walkFactor="0.75" costs="137.39"/>
    </person>
    <person id="26#2" depart="7526.00">
        <personTrip from="408172599" to="408172599" modes="public" walkFactor="0.75" costs="0.00"/>
    </person>
    <person id="11#2" depart="7631.00">
        <personTrip from="482442765#0" to="43662107#0" modes="public" walkFactor="0.75" costs="592.49"/>
    </person>
    <person id="12#2" depart="7648.00">
        <personTrip from="393764341#0" to="479178953" modes="public" walkFactor="0.75" costs="310.79"/>
    </person>
    <person id="15#3" depart="7711.00">
        <personTrip from="533269773" to="511852937#0" modes="public" walkFactor="0.75" costs="158.93"/>
    </person>
    <person id="16#2" depart="7783.00">
        <personTrip from="408172599" to="42299170#0" modes="public" walkFactor="0.75" costs="348.20"/>
    </person>
    <person id="9#2" depart="7792.00">
        <personTrip from="42299654#0" to="479178957#0" modes="public" walkFactor="0.75" costs="76.37"/>
    </person>
    <person id="8#3" depart="8099.00">
        <personTrip from="533269774" to="670024857" modes="public" walkFactor="0.75" costs="498.05"/>
    </person>
    <person id="6#2" depart="8383.00">
        <personTrip from="479178957#0" to="42299170#0" modes="public" walkFactor="0.75" costs="244.67"/>
    </person>
    <person id="14#2" depart="8542.00">
        <personTrip from="393854027#0" to="217840002#0" modes="public" walkFactor="0.75" costs="329.11"/>
    </person>
    <person id="11#3" depart="8571.00">
        <personTrip from="43662107#0" to="93359226#0" modes="public" walkFactor="0.75" costs="961.76"/>
    </person>
    <person id="25#3" depart="9174.00">
        <personTrip from="393835202" to="162562140#0" modes="public" walkFactor="0.75" costs="988.70"/>
    </person>
    <person id="24#3" depart="9179.00">
        <personTrip from="393835202" to="379136812#0" modes="public" walkFactor="0.75" costs="631.73"/>
    </person>
    <person id="12#3" depart="9254.00">
        <personTrip from="479178953" to="393854027#0" modes="public" walkFactor="0.75" costs="187.81"/>
    </person>
    <person id="23#2" depart="9324.00">
        <personTrip from="479178953" to="370817780" modes="public" walkFactor="0.75" costs="706.41"/>
    </person>
    <person id="8#4" depart="9353.00">
        <personTrip from="670024857" to="42299170#0" modes="public" walkFactor="0.75" costs="781.91"/>
    </person>
    <person id="13#4" depart="9408.00">
        <personTrip from="533269773" to="394660927#1" modes="public" walkFactor="0.75" costs="360.74"/>
    </person>
    <person id="22#2" depart="9410.00">
        <personTrip from="482442757" to="482907800" modes="public" walkFactor="0.75" costs="466.28"/>
    </person>
    <person id="17#2" depart="9432.00">
        <personTrip from="683185824#0" to="393835202" modes="public" walkFactor="0.75" costs="787.10"/>
    </person>
    <person id="21#3" depart="9961.00">
        <personTrip from="533269775" to="479037388#1" modes="public" walkFactor="0.75" costs="359.44"/>
    </person>
    <person id="7#3" depart="10180.00">
        <personTrip from="93359226#0" to="425555630#2" modes="public" walkFactor="0.75" costs="743.17"/>
    </person>
    <person id="13#5" depart="10626.00">
        <personTrip from="394660927#1" to="479037388#1" modes="public" walkFactor="0.75" costs="288.15"/>
    </person>
    <person id="25#4" depart="10717.00">
        <personTrip from="162562140#0" to="370817780" modes="public" walkFactor="0.75" costs="22.85"/>
    </person>
    <person id="11#4" depart="10788.00">
        <personTrip from="93359226#0" to="394662440" modes="public" walkFactor="0.75" costs="586.69"/>
    </person>
    <person id="23#3" depart="10824.00">
        <personTrip from="370817780" to="303055947" modes="public" walkFactor="0.75" costs="912.73"/>
    </person>
    <person id="8#5" depart="10908.00">
        <personTrip from="42299170#0" to="630262535#0" modes="public" walkFactor="0.75" costs="328.21"/>
    </person>
    <person id="17#3" depart="11380.00">
        <personTrip from="393835202" to="227350281#0" modes="public" walkFactor="0.75" costs="575.46"/>
    </person>
    <person id="6#3" depart="11873.00">
        <personTrip from="42299170#0" to="393764306" modes="public" walkFactor="0.75" costs="703.40"/>
    </person>
    <person id="9#3" depart="11902.00">
        <personTrip from="479178957#0" to="446729524" modes="public" walkFactor="0.75" costs="611.74"/>
    </person>
    <person id="7#4" depart="12003.00">
        <personTrip from="425555630#2" to="259196946#0" modes="public" walkFactor="0.75" costs="671.40"/>
    </person>
    <person id="10#3" depart="12188.00">
        <personTrip from="670024857" to="303055947" modes="public" walkFactor="0.75" costs="891.63"/>
    </person>
    <person id="14#3" depart="12755.00">
        <personTrip from="217840002#0" to="393764341#0" modes="public" walkFactor="0.75" costs="188.85"/>
    </person>
    <person id="19#3" depart="12932.00">
        <personTrip from="393764312" to="738204219" modes="public" walkFactor="0.75" costs="500.22"/>
    </person>
    <person id="18#3" depart="12975.00">
        <personTrip from="479178957#0" to="353046109#0" modes="public" walkFactor="0.75" costs="494.84"/>
    </person>
    <person id="20#3" depart="13003.00">
        <personTrip from="393764341#0" to="303055947" modes="public" walkFactor="0.75" costs="342.18"/>
    </person>
    <person id="15#4" depart="13164.00">
        <personTrip from="511852937#0" to="42299654#0" modes="public" walkFactor="0.75" costs="104.01"/>
    </person>
    <person id="26#3" depart="13358.00">
        <personTrip from="408172599" to="533269775" modes="public" walkFactor="0.75" costs="686.13"/>
    </person>
    <person id="16#3" depart="13635.00">
        <personTrip from="42299170#0" to="259196946#0" modes="public" walkFactor="0.75" costs="636.08"/>
    </person>
    <person id="27#2" depart="13793.00">
        <personTrip from="162562140#0" to="162562779#0" modes="public" walkFactor="0.75" costs="2.07"/>
    </person>
    <person id="20#4" depart="14158.00">
        <personTrip from="303055947" to="683185817" modes="public" walkFactor="0.75" costs="609.46"/>
    </person>
    <person id="24#4" depart="14356.00">
        <personTrip from="379136812#0" to="393835202" modes="public" walkFactor="0.75" costs="631.73"/>
    </person>
    <person id="15#5" depart="14936.00">
        <personTrip from="42299654#0" to="533269770#0" modes="public" walkFactor="0.75" costs="72.62"/>
    </person>
    <person id="7#5" depart="15101.00">
        <personTrip from="259196946#0" to="379136812#0" modes="public" walkFactor="0.75" costs="498.45"/>
    </person>
    <person id="12#4" depart="15604.00">
        <personTrip from="393854027#0" to="42299170#0" modes="public" walkFactor="0.75" costs="2.68"/>
    </person>
    <person id="13#6" depart="16025.00">
        <personTrip from="479037388#1" to="533269773" modes="public" walkFactor="0.75" costs="306.10"/>
    </person>
    <person id="8#6" depart="16070.00">
        <personTrip from="630262535#0" to="155291168" modes="public" walkFactor="0.75" costs="973.30"/>
    </person>
    <person id="22#3" depart="16075.00">