<?xml version="1.0" encoding="UTF-8"?>
<configuration xmlns:xsi="http://www.w3.org/2001/XMLSchema-instance" xsi:noNamespaceSchemaLocation="http://sumo.dlr.de/xsd/sumoConfiguration.xsd">
    <input>
        <net-file value="/home/yanncauchepin/Git/PublicProjects/EpidemicDigitalization/Code/Modules/SumoMobility/SumoFiles/network.net.xml" />
        <additional-files value="/home/yanncauchepin/Git/PublicProjects/EpidemicDigitalization/Code/Modules/SumoMobility/SumoFiles/polygons.poly.xml, /home/yanncauchepin/Git/PublicProjects/EpidemicDigitalization/Code/Modules/SumoMobility/SumoFiles/pt.stops.xml"/>
        <route-files value="/home/yanncauchepin/Git/PublicProjects/EpidemicDigitalization/Code/Modules/SumoMobility/SumoFiles/default.1.people.routes.xml, /home/yanncauchepin/Git/PublicProjects/EpidemicDigitalization/Code/Modules/SumoMobility/SumoFiles/pt.routes.xml" />
    </input>
    <output>
        <tripinfo-output value="/home/yanncauchepin/Git/PublicProjects/EpidemicDigitalization/Code/Modules/SumoMobility/Report/default.1.tripinfo.xml" />
        <person-summary-output value="/home/yanncauchepin/Git/PublicProjects/EpidemicDigitalization/Code/Modules/SumoMobility/Report/default.1.timestate.xml" />
    </output>
    <processing>
        <threads value="40" />
        <ignore-accidents value="True" />
        <collision.action value="teleport" />
        <pedestrian.model value="nonInteracting" />
    </processing>
    <routing>
    </routing>
    <report>
        <verbose value="true"/>
        <no-step-log value="true"/>
    </report>
    <gui_only>
        <gui-settings-file value="/home/yanncauchepin/Git/PublicProjects/EpidemicDigitalization/Code/Modules/SumoMobility/SumoFiles/spreading.view.xml"/>
        <quit-on-end value="True" />
        <start value="True" />
    </gui_only>
</configuration>
        