<?xml version="1.0" encoding="UTF-8"?>

<!-- generated on 2024-02-18 09:39:27 by Eclipse SUMO netconvert Version 1.12.0
<configuration xmlns:xsi="http://www.w3.org/2001/XMLSchema-instance" xsi:noNamespaceSchemaLocation="http://sumo.dlr.de/xsd/netconvertConfiguration.xsd">

    <input>
        <type-files value="/usr/share/sumo/data/typemap/osmNetconvert.typ.xml,/usr/share/sumo/data/typemap/osmNetconvertUrbanDe.typ.xml,/usr/share/sumo/data/typemap/osmNetconvertPedestrians.typ.xml"/>
        <osm-files value="/home/yanncauchepin/Git/PublicProjects/EpidemicDigitalization/code/../datasets/belval/openstreetmap/belval.osm.xml"/>
    </input>

    <output>
        <output-file value="/home/yanncauchepin/Git/PublicProjects/EpidemicDigitalization/code/modules/sumomobility/sumomobility_files/network.net.xml"/>
        <output.street-names value="true"/>
        <output.original-names value="true"/>
        <ptstop-output value="/home/yanncauchepin/Git/PublicProjects/EpidemicDigitalization/code/modules/sumomobility/sumomobility_files/pt.stops.xml"/>
        <ptline-output value="/home/yanncauchepin/Git/PublicProjects/EpidemicDigitalization/code/modules/sumomobility/sumomobility_files/pt.lines.xml"/>
    </output>

    <projection>
        <proj.utm value="true"/>
    </projection>

    <processing>
        <geometry.remove value="true"/>
        <roundabouts.guess value="true"/>
    </processing>

    <tls_building>
        <tls.discard-simple value="true"/>
        <tls.join value="true"/>
        <tls.guess-signals value="true"/>
        <tls.default-type value="actuated"/>
    </tls_building>

    <ramp_guessing>
        <ramps.guess value="true"/>
    </ramp_guessing>

    <edge_removal>
        <remove-edges.isolated value="true"/>
    </edge_removal>

    <junctions>
        <junctions.join value="true"/>
        <junctions.corner-detail value="5"/>
    </junctions>

    <pedestrian>
        <crossings.guess value="true"/>
    </pedestrian>

    <railway>
        <railway.topology.repair value="true"/>
        <railway.topology.repair.stop-turn value="true"/>
    </railway>

    <formats>
        <osm.stop-output.length value="20"/>
    </formats>

    <report>
        <verbose value="true"/>
        <aggregate-warnings value="5"/>
    </report>

</configuration>
-->

<net version="1.9" junctionCornerDetail="5" walkingareas="true" limitTurnSpeed="5.50" xmlns:xsi="http://www.w3.org/2001/XMLSchema-instance" xsi:noNamespaceSchemaLocation="http://sumo.dlr.de/xsd/net_file.xsd">

    <location netOffset="-712407.82,-5486663.70" convBoundary="0.00,0.00,2657.89,1498.58" origBoundary="5.933899,49.493599,5.972651,49.508472" projParameter="+proj=utm +zone=31 +ellps=WGS84 +datum=WGS84 +units=m +no_defs"/>

    <type id="highway.bridleway" priority="1" numLanes="1" speed="2.78" allow="pedestrian" oneway="1" width="2.00"/>
    <type id="highway.bus_guideway" priority="1" numLanes="1" speed="13.89" allow="bus" oneway="1"/>
    <type id="highway.cycleway" priority="1" numLanes="1" speed="8.33" allow="bicycle" oneway="0" width="1.00"/>
    <type id="highway.footway" priority="1" numLanes="1" speed="2.78" allow="pedestrian" oneway="1" width="2.00"/>
    <type id="highway.ford" priority="1" numLanes="1" speed="2.78" allow="army" oneway="0"/>
    <type id="highway.living_street" priority="2" numLanes="1" speed="2.78" disallow="tram rail_urban rail rail_electric rail_fast ship" oneway="0"/>
    <type id="highway.motorway" priority="14" numLanes="2" speed="27.78" allow="private emergency authority army vip passenger hov taxi bus coach delivery truck trailer motorcycle evehicle custom1 custom2" oneway="1"/>
    <type id="highway.motorway_link" priority="9" numLanes="1" speed="16.67" allow="private emergency authority army vip passenger hov taxi bus coach delivery truck trailer motorcycle evehicle custom1 custom2" oneway="1"/>
    <type id="highway.path" priority="1" numLanes="1" speed="2.78" allow="pedestrian bicycle" oneway="0" width="2.00"/>
    <type id="highway.pedestrian" priority="1" numLanes="1" speed="2.78" allow="pedestrian" oneway="1" width="2.00"/>
    <type id="highway.primary" priority="12" numLanes="2" speed="13.89" disallow="pedestrian tram rail_urban rail rail_electric rail_fast ship" oneway="0" sidewalkWidth="3.00"/>
    <type id="highway.primary_link" priority="7" numLanes="1" speed="13.89" disallow="pedestrian tram rail_urban rail rail_electric rail_fast ship" oneway="0" sidewalkWidth="3.00"/>
    <type id="highway.raceway" priority="15" numLanes="2" speed="83.33" allow="vip" oneway="0"/>
    <type id="highway.residential" priority="3" numLanes="1" speed="13.89" disallow="pedestrian tram rail_urban rail rail_electric rail_fast ship" oneway="0" sidewalkWidth="2.00"/>
    <type id="highway.secondary" priority="11" numLanes="1" speed="13.89" disallow="pedestrian tram rail_urban rail rail_electric rail_fast ship" oneway="0" sidewalkWidth="3.00"/>
    <type id="highway.secondary_link" priority="6" numLanes="1" speed="13.89" disallow="pedestrian tram rail_urban rail rail_electric rail_fast ship" oneway="0" sidewalkWidth="3.00"/>
    <type id="highway.service" priority="1" numLanes="1" speed="5.56" allow="pedestrian delivery bicycle" oneway="0"/>
    <type id="highway.stairs" priority="1" numLanes="1" speed="1.39" allow="pedestrian" oneway="1" width="2.00"/>
    <type id="highway.step" priority="1" numLanes="1" speed="1.39" allow="pedestrian" oneway="1" width="2.00"/>
    <type id="highway.steps" priority="1" numLanes="1" speed="1.39" allow="pedestrian" oneway="1" width="2.00"/>
    <type id="highway.tertiary" priority="10" numLanes="1" speed="13.89" disallow="pedestrian tram rail_urban rail rail_electric rail_fast ship" oneway="0" sidewalkWidth="3.00"/>
    <type id="highway.tertiary_link" priority="5" numLanes="1" speed="13.89" disallow="pedestrian tram rail_urban rail rail_electric rail_fast ship" oneway="0" sidewalkWidth="2.00"/>
    <type id="highway.track" priority="1" numLanes="1" speed="5.56" allow="pedestrian motorcycle moped bicycle" oneway="0"/>
    <type id="highway.trunk" priority="13" numLanes="2" speed="13.89" disallow="pedestrian bicycle tram rail_urban rail rail_electric rail_fast ship" oneway="0"/>
    <type id="highway.trunk_link" priority="8" numLanes="1" speed="13.89" disallow="pedestrian bicycle tram rail_urban rail rail_electric rail_fast ship" oneway="0"/>
    <type id="highway.unclassified" priority="4" numLanes="1" speed="13.89" disallow="pedestrian tram rail_urban rail rail_electric rail_fast ship" oneway="0" sidewalkWidth="2.00"/>
    <type id="highway.unsurfaced" priority="1" numLanes="1" speed="8.33" disallow="tram rail_urban rail rail_electric rail_fast ship" oneway="0"/>
    <type id="railway.highspeed" priority="21" numLanes="1" speed="69.44" allow="rail_fast" oneway="1"/>
    <type id="railway.light_rail" priority="19" numLanes="1" speed="27.78" allow="rail_urban" oneway="1"/>
    <type id="railway.preserved" priority="16" numLanes="1" speed="27.78" allow="rail" oneway="1"/>
    <type id="railway.rail" priority="20" numLanes="1" speed="44.44" allow="rail" oneway="1"/>
    <type id="railway.subway" priority="18" numLanes="1" speed="27.78" allow="rail_urban" oneway="1"/>
    <type id="railway.tram" priority="17" numLanes="1" speed="13.89" allow="tram" oneway="1"/>

    <edge id=":1067909734_0" function="internal">
        <lane id=":1067909734_0_0" index="0" allow="pedestrian bicycle" speed="2.78" length="2.92" width="2.00" shape="358.70,672.63 357.99,672.07 357.78,671.55 358.07,671.08 358.86,670.64"/>
    </edge>
    <edge id=":1067909863_0" function="internal">
        <lane id=":1067909863_0_0" index="0" disallow="pedestrian tram rail_urban rail rail_electric rail_fast ship" speed="19.44" length="5.29" shape="634.36,614.77 632.91,615.33 631.97,615.88 631.02,616.40 629.54,616.88"/>
    </edge>
    <edge id=":1067909863_1" function="internal">
        <lane id=":1067909863_1_0" index="0" allow="delivery bicycle" speed="4.74" length="1.95" shape="634.36,614.77 632.42,614.64"/>
    </edge>
    <edge id=":1067909863_4" function="internal">
        <lane id=":1067909863_4_0" index="0" allow="delivery bicycle" speed="4.74" length="6.54" shape="632.42,614.64 632.11,614.62 630.53,613.20 630.09,611.25 631.26,609.50"/>
    </edge>
    <edge id=":1067909863_2" function="internal">
        <lane id=":1067909863_2_0" index="0" allow="delivery bicycle" speed="12.50" length="5.23" shape="628.80,613.77 629.91,613.05 630.16,611.93 630.35,610.66 631.26,609.50"/>
    </edge>
    <edge id=":1067909863_3" function="internal">
        <lane id=":1067909863_3_0" index="0" disallow="pedestrian tram rail_urban rail rail_electric rail_fast ship" speed="19.44" length="4.33" shape="628.80,613.77 630.00,613.36 630.76,612.89 631.51,612.41 632.69,611.93"/>
    </edge>
    <edge id=":1067909863_w0" function="walkingarea">
        <lane id=":1067909863_w0_0" index="0" allow="pedestrian" speed="1.00" length="6.20" width="3.00" shape="629.91,618.44 630.60,621.36 636.41,618.96 635.55,616.08 633.75,616.69 632.99,617.06 632.38,617.43 631.77,617.78 631.00,618.12"/>
    </edge>
    <edge id=":1067909863_w1" function="walkingarea">
        <lane id=":1067909863_w1_0" index="0" allow="pedestrian" speed="1.00" length="2.39" width="3.20" shape="631.51,610.62 630.64,607.74 632.14,610.83 630.38,608.16 627.74,609.29 628.43,612.21 629.28,611.95 629.88,611.66 630.34,611.35 630.81,611.03 631.39,610.71"/>
    </edge>
    <edge id=":1082540973_0" function="internal">
        <lane id=":1082540973_0_0" index="0" allow="rail" speed="44.44" length="27.41" shape="687.75,658.09 693.20,656.43 700.88,654.09 708.50,651.62 713.79,649.57"/>
    </edge>
    <edge id=":1082540973_1" function="internal">
        <lane id=":1082540973_1_0" index="0" allow="rail" speed="44.44" length="27.42" shape="688.99,661.25 713.79,649.57"/>
    </edge>
    <edge id=":1082541113_0" function="internal">
        <lane id=":1082541113_0_0" index="0" allow="rail" speed="44.44" length="27.65" shape="53.84,858.78 59.15,856.64 66.53,853.30 73.87,849.86 79.05,847.43"/>
    </edge>
    <edge id=":1082541113_1" function="internal">
        <lane id=":1082541113_1_0" index="0" allow="rail" speed="44.44" length="27.66" shape="53.84,858.78 80.26,850.60"/>
    </edge>
    <edge id=":1082541226_0" function="internal">
        <lane id=":1082541226_0_0" index="0" allow="rail" speed="44.44" length="3.03" shape="792.62,591.32 791.82,591.73 791.26,591.99 790.69,592.23 789.86,592.55"/>
    </edge>
    <edge id=":1082541226_1" function="internal">
        <lane id=":1082541226_1_0" index="0" allow="rail" speed="2.86" length="1.67" shape="789.94,592.72 790.48,592.42 790.65,592.29 790.44,592.34 789.86,592.55"/>
    </edge>
    <edge id=":1082541875_0" function="internal">
        <lane id=":1082541875_0_0" index="0" allow="pedestrian delivery bicycle" speed="5.56" length="9.41" shape="1196.69,615.61 1195.57,606.26"/>
    </edge>
    <edge id=":1082541875_1" function="internal">
        <lane id=":1082541875_1_0" index="0" allow="pedestrian delivery bicycle" speed="5.56" length="10.17" shape="1196.69,615.61 1196.75,612.84 1197.69,610.75 1199.51,609.33 1202.21,608.57"/>
    </edge>
    <edge id=":1082541875_2" function="internal">
        <lane id=":1082541875_2_0" index="0" allow="pedestrian delivery bicycle" speed="3.65" length="4.67" shape="1196.69,615.61 1197.34,614.32 1198.09,613.83 1198.93,614.13 1199.87,615.22"/>
    </edge>
    <edge id=":1082541875_3" function="internal">
        <lane id=":1082541875_3_0" index="0" allow="pedestrian delivery bicycle" speed="5.08" length="5.05" shape="1202.63,611.75 1201.28,612.12 1200.37,612.82 1199.90,613.86 1199.87,615.22"/>
    </edge>
    <edge id=":1082541875_4" function="internal">
        <lane id=":1082541875_4_0" index="0" allow="pedestrian delivery bicycle" speed="5.56" length="10.23" shape="1202.63,611.75 1199.82,611.72 1197.71,610.79 1196.29,608.98 1195.57,606.26"/>
    </edge>
    <edge id=":1082541875_5" function="internal">
        <lane id=":1082541875_5_0" index="0" allow="pedestrian delivery bicycle" speed="3.65" length="4.67" shape="1202.63,611.75 1201.33,611.11 1200.83,610.37 1201.12,609.52 1202.21,608.57"/>
    </edge>
    <edge id=":1082541875_6" function="internal">
        <lane id=":1082541875_6_0" index="0" allow="pedestrian delivery bicycle" speed="5.03" length="5.02" shape="1198.74,605.89 1199.10,607.22 1199.79,608.11 1200.83,608.56 1202.21,608.57"/>
    </edge>
    <edge id=":1082541875_7" function="internal">
        <lane id=":1082541875_7_0" index="0" allow="pedestrian delivery bicycle" speed="5.56" length="9.40" shape="1198.74,605.89 1199.87,615.22"/>
    </edge>
    <edge id=":1082541875_8" function="internal">
        <lane id=":1082541875_8_0" index="0" allow="pedestrian delivery bicycle" speed="3.65" length="4.67" shape="1198.74,605.89 1198.09,607.17 1197.34,607.66 1196.50,607.36 1195.57,606.26"/>
    </edge>
    <edge id=":1082541875_w0" function="walkingarea">
        <lane id=":1082541875_w0_0" index="0" allow="pedestrian" speed="1.00" length="6.88" width="3.20" shape="1195.10,615.80 1198.28,615.41 1198.28,615.41 1201.45,615.03 1202.84,613.33 1202.42,610.16 1202.42,610.16 1202.00,606.99 1200.33,605.70 1197.15,606.07 1197.15,606.07 1193.98,606.45"/>
    </edge>
    <edge id=":1082542665_0" function="internal">
        <lane id=":1082542665_0_0" index="0" allow="pedestrian delivery bicycle" speed="3.65" length="4.67" shape="617.08,1122.00 618.52,1122.06 619.27,1122.53 619.35,1123.43 618.74,1124.73"/>
    </edge>
    <edge id=":1082542665_w0" function="walkingarea">
        <lane id=":1082542665_w0_0" index="0" allow="pedestrian" speed="1.00" length="6.06" width="3.20" shape="621.28,1126.80 623.18,1126.17 620.38,1116.96 618.47,1117.57 616.24,1120.63 617.91,1123.37 617.91,1123.37 619.57,1126.10 621.11,1126.41 620.88,1126.12 620.61,1125.94 620.30,1125.87 619.95,1125.92"/>
    </edge>
    <edge id=":1082542716_0" function="internal">
        <lane id=":1082542716_0_0" index="0" allow="rail" speed="44.44" length="3.01" shape="812.96,580.85 810.28,582.22"/>
    </edge>
    <edge id=":1082542716_1" function="internal">
        <lane id=":1082542716_1_0" index="0" allow="rail" speed="44.44" length="2.99" shape="810.38,582.36 812.86,580.70"/>
    </edge>
    <edge id=":1082542942_0" function="internal">
        <lane id=":1082542942_0_0" index="0" allow="pedestrian delivery bicycle" speed="3.65" length="4.67" shape="1526.16,373.56 1527.55,373.94 1528.18,374.58 1528.05,375.46 1527.16,376.60"/>
    </edge>
    <edge id=":1082542968_0" function="internal">
        <lane id=":1082542968_0_0" index="0" allow="pedestrian delivery bicycle" speed="5.56" length="12.60" shape="1277.60,821.63 1273.26,809.80"/>
    </edge>
    <edge id=":1082542968_1" function="internal">
        <lane id=":1082542968_1_0" index="0" allow="pedestrian delivery bicycle" speed="5.56" length="13.57" shape="1277.60,821.63 1277.14,818.25 1277.74,815.11 1278.94,811.98 1280.29,808.64"/>
    </edge>
    <edge id=":1082542968_2" function="internal">
        <lane id=":1082542968_2_0" index="0" allow="pedestrian delivery bicycle" speed="3.65" length="4.67" shape="1277.60,821.63 1278.00,820.24 1278.64,819.62 1279.52,819.76 1280.65,820.66"/>
    </edge>
    <edge id=":1082542968_3" function="internal">
        <lane id=":1082542968_3_0" index="0" allow="pedestrian delivery bicycle" speed="5.56" length="11.59" shape="1283.30,809.74 1281.95,812.75 1280.76,815.17 1280.18,817.61 1280.65,820.66"/>
    </edge>
    <edge id=":1082542968_4" function="internal">
        <lane id=":1082542968_4_0" index="0" allow="pedestrian delivery bicycle" speed="5.56" length="17.35" shape="1283.30,809.74 1280.82,814.81 1278.32,816.52 1275.80,814.85 1273.26,809.80"/>
    </edge>
    <edge id=":1082542968_5" function="internal">
        <lane id=":1082542968_5_0" index="0" allow="pedestrian delivery bicycle" speed="3.65" length="4.67" shape="1283.30,809.74 1282.14,810.59 1281.25,810.69 1280.63,810.04 1280.29,808.64"/>
    </edge>
    <edge id=":1082542968_6" function="internal">
        <lane id=":1082542968_6_0" index="0" allow="pedestrian delivery bicycle" speed="4.70" length="6.99" shape="1276.25,808.67 1277.27,810.70 1278.29,811.37 1279.30,810.68 1280.29,808.64"/>
    </edge>
    <edge id=":1082542968_7" function="internal">
        <lane id=":1082542968_7_0" index="0" allow="pedestrian delivery bicycle" speed="5.56" length="12.78" shape="1276.25,808.67 1280.65,820.66"/>
    </edge>
    <edge id=":1082542968_8" function="internal">
        <lane id=":1082542968_8_0" index="0" allow="pedestrian delivery bicycle" speed="3.65" length="4.67" shape="1276.25,808.67 1275.93,810.07 1275.32,810.73 1274.43,810.64 1273.26,809.80"/>
    </edge>
    <edge id=":1082542968_w0" function="walkingarea">
        <lane id=":1082542968_w0_0" index="0" allow="pedestrian" speed="1.00" length="9.28" width="3.20" shape="1276.07,822.12 1279.12,821.15 1279.12,821.15 1282.17,820.18 1284.80,810.28 1281.80,809.19 1281.80,809.19 1278.79,808.09 1277.74,808.10 1274.75,809.23 1274.75,809.23 1271.76,810.37"/>
    </edge>
    <edge id=":1082543065_0" function="internal">
        <lane id=":1082543065_0_0" index="0" allow="rail" speed="44.44" length="58.21" shape="990.10,488.00 980.91,493.05 964.85,502.46 948.89,512.03 939.95,517.55"/>
    </edge>
    <edge id=":1082543065_1" function="internal">
        <lane id=":1082543065_1_0" index="0" allow="rail" speed="44.44" length="58.33" shape="990.10,488.00 938.23,514.67"/>
    </edge>
    <edge id=":1082543065_2" function="internal">
        <lane id=":1082543065_2_0" index="0" allow="rail" speed="44.44" length="58.32" shape="988.34,485.00 939.95,517.55"/>
    </edge>
    <edge id=":1082543065_3" function="internal">
        <lane id=":1082543065_3_0" index="0" allow="rail" speed="44.44" length="58.24" shape="988.34,485.00 979.38,490.48 963.39,500.00 947.34,509.44 938.23,514.67"/>
    </edge>
    <edge id=":1082543245_0" function="internal">
        <lane id=":1082543245_0_0" index="0" allow="rail" speed="44.44" length="29.50" shape="120.27,838.25 148.39,829.33"/>
    </edge>
    <edge id=":1082543245_1" function="internal">
        <lane id=":1082543245_1_0" index="0" allow="rail" speed="44.44" length="29.49" shape="120.27,838.25 126.12,836.87 134.69,835.22 143.29,833.67 149.21,832.61"/>
    </edge>
    <edge id=":1082543366_0" function="internal">
        <lane id=":1082543366_0_0" index="0" allow="rail" speed="44.44" length="2.98" shape="921.85,523.59 919.23,525.00"/>
    </edge>
    <edge id=":1082543366_1" function="internal">
        <lane id=":1082543366_1_0" index="0" allow="rail" speed="44.44" length="2.96" shape="919.32,525.14 921.74,523.45"/>
    </edge>
    <edge id=":1082543395_0" function="internal">
        <lane id=":1082543395_0_0" index="0" allow="pedestrian delivery bicycle" speed="5.56" length="9.40" shape="1207.06,701.23 1205.95,691.89"/>
    </edge>
    <edge id=":1082543395_1" function="internal">
        <lane id=":1082543395_1_0" index="0" allow="pedestrian delivery bicycle" speed="5.56" length="10.19" shape="1207.06,701.23 1207.15,698.58 1208.12,696.50 1209.97,695.00 1212.68,694.07"/>
    </edge>
    <edge id=":1082543395_2" function="internal">
        <lane id=":1082543395_2_0" index="0" allow="pedestrian delivery bicycle" speed="3.65" length="4.67" shape="1207.06,701.23 1207.71,699.94 1208.46,699.45 1209.30,699.76 1210.24,700.86"/>
    </edge>
    <edge id=":1082543395_3" function="internal">
        <lane id=":1082543395_3_0" index="0" allow="pedestrian delivery bicycle" speed="5.33" length="5.34" shape="1213.32,697.21 1211.84,697.70 1210.84,698.47 1210.30,699.52 1210.24,700.86"/>
    </edge>
    <edge id=":1082543395_4" function="internal">
        <lane id=":1082543395_4_0" index="0" allow="pedestrian delivery bicycle" speed="5.56" length="10.56" shape="1213.32,697.21 1210.40,697.38 1208.19,696.55 1206.71,694.72 1205.95,691.89"/>
    </edge>
    <edge id=":1082543395_5" function="internal">
        <lane id=":1082543395_5_0" index="0" allow="pedestrian delivery bicycle" speed="3.65" length="4.67" shape="1213.32,697.21 1211.99,696.66 1211.43,695.96 1211.67,695.10 1212.68,694.07"/>
    </edge>
    <edge id=":1082543395_6" function="internal">
        <lane id=":1082543395_6_0" index="0" allow="pedestrian delivery bicycle" speed="4.96" length="5.10" shape="1209.12,691.51 1209.49,692.87 1210.21,693.75 1211.27,694.15 1212.68,694.07"/>
    </edge>
    <edge id=":1082543395_7" function="internal">
        <lane id=":1082543395_7_0" index="0" allow="pedestrian delivery bicycle" speed="5.56" length="9.41" shape="1209.12,691.51 1210.24,700.86"/>
    </edge>
    <edge id=":1082543395_8" function="internal">
        <lane id=":1082543395_8_0" index="0" allow="pedestrian delivery bicycle" speed="3.65" length="4.67" shape="1209.12,691.51 1208.47,692.80 1207.73,693.29 1206.89,692.99 1205.95,691.89"/>
    </edge>
    <edge id=":1082543395_w0" function="walkingarea">
        <lane id=":1082543395_w0_0" index="0" allow="pedestrian" speed="1.00" length="6.96" width="3.20" shape="1205.47,701.41 1208.65,701.04 1208.65,701.04 1211.83,700.67 1213.64,698.78 1213.00,695.64 1213.00,695.64 1212.36,692.51 1210.71,691.32 1207.54,691.70 1207.54,691.70 1204.36,692.09"/>
    </edge>
    <edge id=":1082543584_0" function="internal">
        <lane id=":1082543584_0_0" index="0" allow="pedestrian delivery bicycle" speed="5.56" length="9.92" shape="1290.08,694.94 1288.19,692.65 1286.93,690.96 1285.42,689.66 1282.80,688.53"/>
    </edge>
    <edge id=":1082543584_1" function="internal">
        <lane id=":1082543584_1_0" index="0" allow="pedestrian delivery bicycle" speed="5.56" length="15.13" shape="1290.08,694.94 1287.28,691.12 1286.96,688.31 1289.14,686.50 1293.81,685.69"/>
    </edge>
    <edge id=":1082543584_2" function="internal">
        <lane id=":1082543584_2_0" index="0" allow="pedestrian delivery bicycle" speed="3.65" length="4.67" shape="1290.08,694.94 1289.84,693.52 1290.15,692.68 1291.01,692.42 1292.41,692.75"/>
    </edge>
    <edge id=":1082543584_3" function="internal">
        <lane id=":1082543584_3_0" index="0" allow="pedestrian delivery bicycle" speed="4.66" length="6.32" shape="1293.97,688.89 1292.02,689.22 1291.11,689.98 1291.24,691.16 1292.41,692.75"/>
    </edge>
    <edge id=":1082543584_4" function="internal">
        <lane id=":1082543584_4_0" index="0" allow="pedestrian delivery bicycle" speed="5.56" length="11.28" shape="1293.97,688.89 1290.79,689.15 1288.30,689.38 1285.85,689.27 1282.80,688.53"/>
    </edge>
    <edge id=":1082543584_5" function="internal">
        <lane id=":1082543584_5_0" index="0" allow="pedestrian delivery bicycle" speed="3.65" length="4.67" shape="1293.97,688.89 1292.73,688.15 1292.29,687.37 1292.65,686.55 1293.81,685.69"/>
    </edge>
    <edge id=":1082543584_6" function="internal">
        <lane id=":1082543584_6_0" index="0" allow="pedestrian delivery bicycle" speed="5.56" length="10.15" shape="1283.78,685.49 1286.65,686.20 1288.70,686.26 1290.80,685.98 1293.81,685.69"/>
    </edge>
    <edge id=":1082543584_7" function="internal">
        <lane id=":1082543584_7_0" index="0" allow="pedestrian delivery bicycle" speed="5.56" length="11.49" shape="1283.78,685.49 1286.65,686.75 1288.60,688.32 1290.29,690.29 1292.41,692.75"/>
    </edge>
    <edge id=":1082543584_8" function="internal">
        <lane id=":1082543584_8_0" index="0" allow="pedestrian delivery bicycle" speed="3.65" length="4.67" shape="1283.78,685.49 1284.67,686.61 1284.81,687.50 1284.19,688.14 1282.80,688.53"/>
    </edge>
    <edge id=":1082543584_w0" function="walkingarea">
        <lane id=":1082543584_w0_0" index="0" allow="pedestrian" speed="1.00" length="8.29" width="3.20" shape="1288.91,696.03 1291.24,693.84 1291.24,693.84 1293.58,691.66 1294.05,690.49 1293.89,687.29 1293.89,687.29 1293.73,684.09 1284.26,683.96 1283.29,687.01 1283.29,687.01 1282.31,690.06 1287.66,694.56 1286.79,693.34 1286.06,692.34 1285.23,691.49 1284.06,690.75"/>
    </edge>
    <edge id=":1082543601_0" function="internal">
        <lane id=":1082543601_0_0" index="0" allow="rail" speed="44.44" length="2.78" shape="680.38,665.10 681.17,664.84 681.70,664.65 682.22,664.42 682.97,664.07"/>
    </edge>
    <edge id=":1082543958_0" function="internal">
        <lane id=":1082543958_0_0" index="0" allow="rail" speed="44.44" length="3.00" shape="117.66,829.40 120.38,828.12"/>
    </edge>
    <edge id=":1082544035_0" function="internal">
        <lane id=":1082544035_0_0" index="0" allow="rail" speed="44.44" length="27.15" shape="89.27,842.75 113.84,831.20"/>
    </edge>
    <edge id=":1082544035_1" function="internal">
        <lane id=":1082544035_1_0" index="0" allow="rail" speed="44.44" length="27.15" shape="89.27,842.75 94.55,840.78 102.09,838.34 109.68,836.01 115.08,834.36"/>
    </edge>
    <edge id=":1082544064_0" function="internal">
        <lane id=":1082544064_0_0" index="0" allow="pedestrian delivery bicycle" speed="4.71" length="7.03" shape="1303.55,765.24 1302.53,763.18 1301.52,762.50 1300.51,763.19 1299.51,765.25"/>
    </edge>
    <edge id=":1082544064_1" function="internal">
        <lane id=":1082544064_1_0" index="0" allow="pedestrian delivery bicycle" speed="5.56" length="12.83" shape="1303.55,765.24 1302.29,762.06 1301.17,759.25 1300.26,756.40 1299.64,753.06"/>
    </edge>
    <edge id=":1082544064_2" function="internal">
        <lane id=":1082544064_2_0" index="0" allow="pedestrian delivery bicycle" speed="3.65" length="4.67" shape="1303.55,765.24 1303.88,763.84 1304.49,763.18 1305.38,763.28 1306.55,764.13"/>
    </edge>
    <edge id=":1082544064_3" function="internal">
        <lane id=":1082544064_3_0" index="0" allow="pedestrian delivery bicycle" speed="5.56" length="12.09" shape="1302.82,752.68 1303.41,755.90 1304.26,758.51 1305.32,761.06 1306.55,764.13"/>
    </edge>
    <edge id=":1082544064_4" function="internal">
        <lane id=":1082544064_4_0" index="0" allow="pedestrian delivery bicycle" speed="5.56" length="13.16" shape="1302.82,752.68 1302.79,756.08 1302.03,759.06 1300.83,762.00 1299.51,765.25"/>
    </edge>
    <edge id=":1082544064_5" function="internal">
        <lane id=":1082544064_5_0" index="0" allow="pedestrian delivery bicycle" speed="3.65" length="4.67" shape="1302.82,752.68 1302.17,753.96 1301.42,754.46 1300.58,754.16 1299.64,753.06"/>
    </edge>
    <edge id=":1082544064_6" function="internal">
        <lane id=":1082544064_6_0" index="0" allow="pedestrian delivery bicycle" speed="5.56" length="11.71" shape="1296.50,764.16 1297.80,761.14 1298.94,758.71 1299.64,756.23 1299.64,753.06"/>
    </edge>
    <edge id=":1082544064_7" function="internal">
        <lane id=":1082544064_7_0" index="0" allow="pedestrian delivery bicycle" speed="5.56" length="17.48" shape="1296.50,764.16 1299.00,759.03 1301.51,757.31 1304.02,759.01 1306.55,764.13"/>
    </edge>
    <edge id=":1082544064_8" function="internal">
        <lane id=":1082544064_8_0" index="0" allow="pedestrian delivery bicycle" speed="3.65" length="4.67" shape="1296.50,764.16 1297.67,763.30 1298.55,763.20 1299.17,763.85 1299.51,765.25"/>
    </edge>
    <edge id=":1082544064_w0" function="walkingarea">
        <lane id=":1082544064_w0_0" index="0" allow="pedestrian" speed="1.00" length="9.22" width="3.20" shape="1302.05,765.80 1305.05,764.68 1305.05,764.68 1308.05,763.57 1304.41,752.49 1301.23,752.87 1301.23,752.87 1298.05,753.25 1295.00,763.61 1298.01,764.70 1298.01,764.70 1301.01,765.80 1301.88,765.41 1301.70,765.17 1301.53,765.09 1301.36,765.17 1301.19,765.41"/>
    </edge>
    <edge id=":1082544235_0" function="internal">
        <lane id=":1082544235_0_0" index="0" allow="rail" speed="44.44" length="12.10" shape="1185.81,579.11 1185.08,575.91 1184.13,573.34 1182.98,570.82 1181.67,567.78"/>
    </edge>
    <edge id=":1082544235_1" function="internal">
        <lane id=":1082544235_1_0" index="0" allow="rail" speed="5.69" length="11.06" shape="1185.27,567.04 1185.15,570.99 1184.50,572.43 1183.34,571.36 1181.67,567.78"/>
    </edge>
    <edge id=":1082544878_0" function="internal">
        <lane id=":1082544878_0_0" index="0" allow="rail" speed="44.44" length="28.48" shape="105.82,815.37 100.48,817.79 92.88,821.35 85.35,825.04 80.22,827.83"/>
    </edge>
    <edge id=":1082544878_1" function="internal">
        <lane id=":1082544878_1_0" index="0" allow="rail" speed="44.44" length="28.46" shape="104.12,812.38 80.22,827.83"/>
    </edge>
    <edge id=":1082544985_0" function="internal">
        <lane id=":1082544985_0_0" index="0" allow="rail" speed="44.44" length="2.99" shape="755.33,611.05 757.98,609.65"/>
    </edge>
    <edge id=":1082545096_0" function="internal">
        <lane id=":1082545096_0_0" index="0" allow="rail" speed="44.44" length="0.10" shape="60.99,839.98 60.99,839.98"/>
    </edge>
    <edge id=":1082545096_1" function="internal">
        <lane id=":1082545096_1_0" index="0" allow="rail" speed="44.44" length="0.10" shape="60.99,839.98 60.99,839.98"/>
    </edge>
    <edge id=":1082545422_0" function="internal">
        <lane id=":1082545422_0_0" index="0" allow="pedestrian bicycle" speed="5.56" length="6.00" shape="599.10,1146.28 597.77,1145.41 596.41,1145.05 595.00,1145.19 593.55,1145.84"/>
    </edge>
    <edge id=":1082545422_1" function="internal">
        <lane id=":1082545422_1_0" index="0" allow="pedestrian delivery bicycle" speed="5.56" length="11.26" shape="599.10,1146.28 596.77,1144.15 595.15,1142.30 593.78,1140.25 592.18,1137.51"/>
    </edge>
    <edge id=":1082545422_2" function="internal">
        <lane id=":1082545422_2_0" index="0" allow="pedestrian delivery bicycle" speed="5.56" length="11.32" shape="599.10,1146.28 597.36,1144.15 596.80,1141.77 597.44,1139.14 599.27,1136.26"/>
    </edge>
    <edge id=":1082545422_3" function="internal">