<?xml version="1.0" encoding="UTF-8"?>
<!-- generated on 2021-03-22 13:06:25.018696 by $Id$ UNKNOWN
  options: 
-->
<routes xmlns:xsi="http://www.w3.org/2001/XMLSchema-instance" xsi:noNamespaceSchemaLocation="http://sumo.dlr.de/xsd/routes_file.xsd">
    <vType id="ped_pedestrian" vClass="pedestrian"/>
    <person id="ped0" depart="0.00" type="ped_pedestrian">
        <personTrip from="42299654#0" to="-223581247#4" modes="public"/>
    </person>
    <person id="ped1" depart="2.63" type="ped_pedestrian">
        <personTrip from="150258989#5" to="-684134539" modes="public"/>
    </person>
    <person id="ped2" depart="5.25" type="ped_pedestrian">
        <personTrip from="479037376#8" to="446729534#1" modes="public"/>
    </person>
    <person id="ped3" depart="7.88" type="ped_pedestrian">
        <personTrip from="683164661" to="-377625002#1" modes="public"/>
    </person>
    <person id="ped4" depart="10.50" type="ped_pedestrian">
        <personTrip from="361570991#2" to="-223813245#1" modes="public"/>
    </person>
    <person id="ped5" depart="13.13" type="ped_pedestrian">
        <personTrip from="-672774776#0" to="383805347#1" modes="public"/>
    </person>
    <person id="ped6" depart="15.76" type="ped_pedestrian">
        <personTrip from="-223581247#8" to="-552900619#3" modes="public"/>
    </person>
    <person id="ped7" depart="18.38" type="ped_pedestrian">
        <personTrip from="43661121#8" to="393248498#4" modes="public"/>
    </person>
    <person id="ped8" depart="21.01" type="ped_pedestrian">
        <personTrip from="-684128946" to="393878671#1" modes="public"/>
    </person>
    <person id="ped9" depart="23.63" type="ped_pedestrian">
        <personTrip from="511852935#1" to="-150258992#1" modes="public"/>
    </person>
    <person id="ped10" depart="26.26" type="ped_pedestrian">
        <personTrip from="511339155#0" to="465836314" modes="public"/>
    </person>
    <person id="ped11" depart="28.89" type="ped_pedestrian">
        <personTrip from="223813240" to="-43661121#9" modes="public"/>
    </person>
    <person id="ped12" depart="31.51" type="ped_pedestrian">
        <personTrip from="753485007" to="223581247#4" modes="public"/>
    </person>
    <person id="ped13" depart="34.14" type="ped_pedestrian">
        <personTrip from="-383805343" to="-384709893#2" modes="public"/>
    </person>
    <person id="ped14" depart="36.76" type="ped_pedestrian">
        <personTrip from="562326418" to="394648820#0" modes="public"/>
    </person>
    <person id="ped15" depart="39.39" type="ped_pedestrian">
        <personTrip from="511852932" to="479037374#0" modes="public"/>
    </person>
    <person id="ped16" depart="42.01" type="ped_pedestrian">
        <personTrip from="38903574#0" to="821222570#1" modes="public"/>
    </person>
    <person id="ped17" depart="44.64" type="ped_pedestrian">
        <personTrip from="26149326" to="393613650#0" modes="public"/>
    </person>
    <person id="ped18" depart="47.27" type="ped_pedestrian">
        <personTrip from="533269770#1" to="394671362#2" modes="public"/>
    </person>
    <person id="ped19" depart="49.89" type="ped_pedestrian">
        <personTrip from="575224402#0" to="393764343#13" modes="public"/>
    </person>
    <person id="ped20" depart="52.52" type="ped_pedestrian">
        <personTrip from="476707103#0" to="-26149300#0" modes="public"/>
    </person>
    <person id="ped21" depart="55.14" type="ped_pedestrian">
        <personTrip from="-69353456#3" to="155296547#7" modes="public"/>
    </person>
    <person id="ped22" depart="57.77" type="ped_pedestrian">
        <personTrip from="-377103314" to="-718314466#0" modes="public"/>
    </person>
    <person id="ped23" depart="60.40" type="ped_pedestrian">
        <personTrip from="-385078968" to="150258992#2" modes="public"/>
    </person>
    <person id="ped24" depart="63.02" type="ped_pedestrian">
        <personTrip from="42299040#1" to="25691686#0" modes="public"/>
    </person>
    <person id="ped25" depart="65.65" type="ped_pedestrian">
        <personTrip from="259194212#0" to="-582546059#0" modes="public"/>
    </person>
    <person id="ped26" depart="68.27" type="ped_pedestrian">
        <personTrip from="-96260468#0" to="738179054#11" modes="public"/>
    </person>
    <person id="ped27" depart="70.90" type="ped_pedestrian">
        <personTrip from="43661121#3" to="394660931#0" modes="public"/>
    </person>
    <person id="ped28" depart="73.53" type="ped_pedestrian">
        <personTrip from="-447857315#1" to="478939514#1" modes="public"/>
    </person>
    <person id="ped29" depart="76.15" type="ped_pedestrian">
        <personTrip from="-447857309#5" to="28242822" modes="public"/>
    </person>
    <person id="ped30" depart="78.78" type="ped_pedestrian">
        <personTrip from="93359226#2" to="42299654#1" modes="public"/>
    </person>
    <person id="ped31" depart="81.40" type="ped_pedestrian">
        <personTrip from="393764288#0" to="447857309#9" modes="public"/>
    </person>
    <person id="ped32" depart="84.03" type="ped_pedestrian">
        <personTrip from="552900621" to="482442872#0" modes="public"/>
    </person>
    <person id="ped33" depart="86.66" type="ped_pedestrian">
        <personTrip from="-69353467" to="-227335560#0" modes="public"/>
    </person>
    <person id="ped34" depart="89.28" type="ped_pedestrian">
        <personTrip from="194714691" to="106887866" modes="public"/>
    </person>
    <person id="ped35" depart="91.91" type="ped_pedestrian">
        <personTrip from="-582546059#3" to="738179056#0" modes="public"/>
    </person>
    <person id="ped36" depart="94.53" type="ped_pedestrian">
        <personTrip from="630262535#0" to="188215407" modes="public"/>
    </person>
    <person id="ped37" depart="97.16" type="ped_pedestrian">
        <personTrip from="440710413#0" to="303952224" modes="public"/>
    </person>
    <person id="ped38" depart="99.79" type="ped_pedestrian">
        <personTrip from="69353444#2" to="377211616" modes="public"/>
    </person>
    <person id="ped39" depart="102.41" type="ped_pedestrian">
        <personTrip from="-96198629#1" to="-772693129#3" modes="public"/>
    </person>
    <person id="ped40" depart="105.04" type="ped_pedestrian">
        <personTrip from="393764300#2" to="-93359247#3" modes="public"/>
    </person>
    <person id="ped41" depart="107.66" type="ped_pedestrian">
        <personTrip from="393764350#6" to="683164663#6" modes="public"/>
    </person>
    <person id="ped42" depart="110.29" type="ped_pedestrian">
        <personTrip from="323877828#0" to="-672774776#1" modes="public"/>
    </person>
    <person id="ped43" depart="112.91" type="ped_pedestrian">
        <personTrip from="96202364#0" to="384709893#1" modes="public"/>
    </person>
    <person id="ped44" depart="115.54" type="ped_pedestrian">
        <personTrip from="-378064617" to="-27414767#0" modes="public"/>
    </person>
    <person id="ped45" depart="118.17" type="ped_pedestrian">
        <personTrip from="-388211544#1" to="395255399#1" modes="public"/>
    </person>
    <person id="ped46" depart="120.79" type="ped_pedestrian">
        <personTrip from="510864901#1" to="361570991#3" modes="public"/>
    </person>
    <person id="ped47" depart="123.42" type="ped_pedestrian">
        <personTrip from="-361376567" to="293181550#1" modes="public"/>
    </person>
    <person id="ped48" depart="126.04" type="ped_pedestrian">
        <personTrip from="96198634#2" to="388040068" modes="public"/>
    </person>
    <person id="ped49" depart="128.67" type="ped_pedestrian">
        <personTrip from="785709733#1" to="575224400#1" modes="public"/>
    </person>
    <person id="ped50" depart="131.30" type="ped_pedestrian">
        <personTrip from="-162561738#8" to="478939508#2" modes="public"/>
    </person>
    <person id="ped51" depart="133.92" type="ped_pedestrian">
        <personTrip from="447857309#3" to="38903574#2" modes="public"/>
    </person>
    <person id="ped52" depart="136.55" type="ped_pedestrian">
        <personTrip from="-96260467" to="42303578#1" modes="public"/>
    </person>
    <person id="ped53" depart="139.17" type="ped_pedestrian">
        <personTrip from="-388211544#5" to="364154097#1" modes="public"/>
    </person>
    <person id="ped54" depart="141.80" type="ped_pedestrian">
        <personTrip from="377103314" to="753387555" modes="public"/>
    </person>
    <person id="ped55" depart="144.43" type="ped_pedestrian">
        <personTrip from="630262533" to="-93359247#4" modes="public"/>
    </person>
    <person id="ped56" depart="147.05" type="ped_pedestrian">
        <personTrip from="379136137#7" to="-468755769#3" modes="public"/>
    </person>
    <person id="ped57" depart="149.68" type="ped_pedestrian">
        <personTrip from="69353439#1" to="582546059#5" modes="public"/>
    </person>
    <person id="ped58" depart="152.30" type="ped_pedestrian">
        <personTrip from="162562779#2" to="42299170#1" modes="public"/>
    </person>
    <person id="ped59" depart="154.93" type="ped_pedestrian">
        <personTrip from="394660931#0" to="-43661121#3" modes="public"/>
    </person>
    <person id="ped60" depart="157.56" type="ped_pedestrian">
        <personTrip from="479178950#3" to="393248447" modes="public"/>
    </person>
    <person id="ped61" depart="160.18" type="ped_pedestrian">
        <personTrip from="482654639#1" to="388211544#0" modes="public"/>
    </person>
    <person id="ped62" depart="162.81" type="ped_pedestrian">
        <personTrip from="-141242409" to="213851821#0" modes="public"/>
    </person>
    <person id="ped63" depart="165.43" type="ped_pedestrian">
        <personTrip from="-210939720#1" to="718314466#3" modes="public"/>
    </person>
    <person id="ped64" depart="168.06" type="ped_pedestrian">
        <personTrip from="630262538" to="533269772" modes="public"/>
    </person>
    <person id="ped65" depart="170.69" type="ped_pedestrian">
        <personTrip from="164439325#2" to="-314738746#1" modes="public"/>
    </person>
    <person id="ped66" depart="173.31" type="ped_pedestrian">
        <personTrip from="630262537" to="738204223#0" modes="public"/>
    </person>
    <person id="ped67" depart="175.94" type="ped_pedestrian">
        <personTrip from="-377213304#1" to="378064615#6" modes="public"/>
    </person>
    <person id="ped68" depart="178.56" type="ped_pedestrian">
        <personTrip from="-364154090#1" to="479178950#0" modes="public"/>
    </person>
    <person id="ped69" depart="181.19" type="ped_pedestrian">
        <personTrip from="479178957#4" to="-393764343#12" modes="public"/>
    </person>
    <person id="ped70" depart="183.81" type="ped_pedestrian">
        <personTrip from="378064614#17" to="393249358#1" modes="public"/>
    </person>
    <person id="ped71" depart="186.44" type="ped_pedestrian">
        <personTrip from="-96198634#0" to="626661525#1" modes="public"/>
    </person>
    <person id="ped72" depart="189.07" type="ped_pedestrian">
        <personTrip from="363299635#0" to="-582546059#5" modes="public"/>
    </person>
    <person id="ped73" depart="191.69" type="ped_pedestrian">
        <personTrip from="393248447" to="479037374#0" modes="public"/>
    </person>
    <person id="ped74" depart="194.32" type="ped_pedestrian">
        <personTrip from="-552900619#7" to="174128071#0" modes="public"/>
    </person>
    <person id="ped75" depart="196.94" type="ped_pedestrian">
        <personTrip from="96198634#0" to="43661121#8" modes="public"/>
    </person>
    <person id="ped76" depart="199.57" type="ped_pedestrian">
        <personTrip from="366838964" to="385152951" modes="public"/>
    </person>
    <person id="ped77" depart="202.20" type="ped_pedestrian">
        <personTrip from="-393764274#0" to="-684165134" modes="public"/>
    </person>
    <person id="ped78" depart="204.82" type="ped_pedestrian">
        <personTrip from="223581247#8" to="393854027#2" modes="public"/>
    </person>
    <person id="ped79" depart="207.45" type="ped_pedestrian">
        <personTrip from="-69357521#4" to="-683185817" modes="public"/>
    </person>
    <person id="ped80" depart="210.07" type="ped_pedestrian">
        <personTrip from="-364154096#0" to="407698850#0" modes="public"/>
    </person>
    <person id="ped81" depart="212.70" type="ped_pedestrian">
        <personTrip from="-69353467" to="684134539" modes="public"/>
    </person>
    <person id="ped82" depart="215.33" type="ped_pedestrian">
        <personTrip from="575224398" to="-364154096#0" modes="public"/>
    </person>
    <person id="ped83" depart="217.95" type="ped_pedestrian">
        <personTrip from="-753393310" to="445988119#2" modes="public"/>
    </person>
    <person id="ped84" depart="220.58" type="ped_pedestrian">
        <personTrip from="-626683099#2" to="-393764343#9" modes="public"/>
    </person>
    <person id="ped85" depart="223.20" type="ped_pedestrian">
        <personTrip from="738179054#1" to="393764331#0" modes="public"/>
    </person>
    <person id="ped86" depart="225.83" type="ped_pedestrian">
        <personTrip from="378064614#12" to="486150194#1" modes="public"/>
    </person>
    <person id="ped87" depart="228.46" type="ped_pedestrian">
        <personTrip from="511852933" to="-511316235#0" modes="public"/>
    </person>
    <person id="ped88" depart="231.08" type="ped_pedestrian">
        <personTrip from="-384709893#2" to="364154088#1" modes="public"/>
    </person>
    <person id="ped89" depart="233.71" type="ped_pedestrian">
        <personTrip from="363299636" to="378064609#2" modes="public"/>
    </person>
    <person id="ped90" depart="236.33" type="ped_pedestrian">
        <personTrip from="478939514#1" to="446729531#1" modes="public"/>
    </person>
    <person id="ped91" depart="238.96" type="ped_pedestrian">
        <personTrip from="93359176#0" to="-384709893#5" modes="public"/>
    </person>
    <person id="ped92" depart="241.59" type="ped_pedestrian">
        <personTrip from="338332424#0" to="223812322" modes="public"/>
    </person>
    <person id="ped93" depart="244.21" type="ped_pedestrian">
        <personTrip from="575224402#0" to="-785709734" modes="public"/>
    </person>
    <person id="ped94" depart="246.84" type="ped_pedestrian">
        <personTrip from="-486150189" to="371436535" modes="public"/>
    </person>
    <person id="ped95" depart="249.46" type="ped_pedestrian">
        <personTrip from="361570991#2" to="152100999" modes="public"/>
    </person>
    <person id="ped96" depart="252.09" type="ped_pedestrian">
        <personTrip from="-93359162#0" to="694995538" modes="public"/>
    </person>
    <person id="ped97" depart="254.71" type="ped_pedestrian">
        <personTrip from="368754370" to="575224401" modes="public"/>
    </person>
    <person id="ped98" depart="257.34" type="ped_pedestrian">
        <personTrip from="393596508#0" to="-293828309" modes="public"/>
    </person>
    <person id="ped99" depart="259.97" type="ped_pedestrian">
        <personTrip from="96260468#0" to="544408156#4" modes="public"/>
    </person>
    <person id="ped100" depart="262.59" type="ped_pedestrian">
        <personTrip from="777938862" to="713057043" modes="public"/>
    </person>
    <person id="ped101" depart="265.22" type="ped_pedestrian">
        <personTrip from="562327201#0" to="-447857310#1" modes="public"/>
    </person>
    <person id="ped102" depart="267.84" type="ped_pedestrian">
        <personTrip from="378064615#5" to="-626683099#1" modes="public"/>
    </person>
    <person id="ped103" depart="270.47" type="ped_pedestrian">
        <personTrip from="326522373" to="-324860237" modes="public"/>
    </person>
    <person id="ped104" depart="273.10" type="ped_pedestrian">
        <personTrip from="27414767#0" to="93359194" modes="public"/>
    </person>
    <person id="ped105" depart="275.72" type="ped_pedestrian">
        <personTrip from="-96198634#0" to="486150185#1" modes="public"/>
    </person>
    <person id="ped106" depart="278.35" type="ped_pedestrian">
        <personTrip from="377103316#1" to="363299635#0" modes="public"/>
    </person>
    <person id="ped107" depart="280.97" type="ped_pedestrian">
        <personTrip from="761797506#0" to="96198634#0" modes="public"/>
    </person>
    <person id="ped108" depart="283.60" type="ped_pedestrian">
        <personTrip from="393764283#0" to="478939507#1" modes="public"/>
    </person>
    <person id="ped109" depart="286.23" type="ped_pedestrian">
        <personTrip from="-43661121#8" to="162562140#1" modes="public"/>
    </person>
    <person id="ped110" depart="288.85" type="ped_pedestrian">
        <personTrip from="777938862" to="393764343#6" modes="public"/>
    </person>
    <person id="ped111" depart="291.48" type="ped_pedestrian">
        <personTrip from="393248497#1" to="479037388#7" modes="public"/>
    </person>
    <person id="ped112" depart="294.10" type="ped_pedestrian">
        <personTrip from="-303055955" to="393764350#5" modes="public"/>
    </person>
    <person id="ped113" depart="296.73" type="ped_pedestrian">
        <personTrip from="379136812#1" to="570972281#1" modes="public"/>
    </person>
    <person id="ped114" depart="299.36" type="ped_pedestrian">
        <personTrip from="-43662107#1" to="765046470#2" modes="public"/>
    </person>
    <person id="ped115" depart="301.98" type="ped_pedestrian">
        <personTrip from="-377103315" to="-479118882" modes="public"/>
    </person>
    <person id="ped116" depart="304.61" type="ped_pedestrian">
        <personTrip from="393907872#3" to="446729533#0" modes="public"/>
    </person>
    <person id="ped117" depart="307.23" type="ped_pedestrian">
        <personTrip from="-738204219" to="-393613650#2" modes="public"/>
    </person>
    <person id="ped118" depart="309.86" type="ped_pedestrian">
        <personTrip from="672774776#2" to="-772693129#2" modes="public"/>
    </person>
    <person id="ped119" depart="312.49" type="ped_pedestrian">
        <personTrip from="393907872#2" to="394682347#0" modes="public"/>
    </person>
    <person id="ped120" depart="315.11" type="ped_pedestrian">
        <personTrip from="360827911#1" to="393764350#4" modes="public"/>
    </person>
    <person id="ped121" depart="317.74" type="ped_pedestrian">
        <personTrip from="385381755" to="738179053" modes="public"/>
    </person>
    <person id="ped122" depart="320.36" type="ped_pedestrian">
        <personTrip from="-552900625" to="478939505#2" modes="public"/>
    </person>
    <person id="ped123" depart="322.99" type="ped_pedestrian">
        <personTrip from="-753485005" to="303952224" modes="public"/>
    </person>
    <person id="ped124" depart="325.61" type="ped_pedestrian">
        <personTrip from="446729530#0" to="162562785" modes="public"/>
    </person>
    <person id="ped125" depart="328.24" type="ped_pedestrian">
        <personTrip from="194714712" to="479037395" modes="public"/>
    </person>
    <person id="ped126" depart="330.87" type="ped_pedestrian">
        <personTrip from="-364154097#0" to="377211608" modes="public"/>
    </person>
    <person id="ped127" depart="333.49" type="ped_pedestrian">
        <personTrip from="96202384" to="96198634#2" modes="public"/>
    </person>
    <person id="ped128" depart="336.12" type="ped_pedestrian">
        <personTrip from="-364154097#2" to="-626683099#0" modes="public"/>
    </person>
    <person id="ped129" depart="338.74" type="ped_pedestrian">
        <personTrip from="-96198634#0" to="738164999#3" modes="public"/>
    </person>
    <person id="ped130" depart="341.37" type="ped_pedestrian">
        <personTrip from="642213889" to="630262539" modes="public"/>
    </person>
    <person id="ped131" depart="344.00" type="ped_pedestrian">
        <personTrip from="259193957" to="-43662107#2" modes="public"/>
    </person>
    <person id="ped132" depart="346.62" type="ped_pedestrian">
        <personTrip from="544408156#0" to="476631726#0" modes="public"/>
    </person>
    <person id="ped133" depart="349.25" type="ped_pedestrian">
        <personTrip from="394660935#1" to="93359213#2" modes="public"/>
    </person>
    <person id="ped134" depart="351.87" type="ped_pedestrian">
        <personTrip from="43662107#2" to="-155287361" modes="public"/>
    </person>
    <person id="ped135" depart="354.50" type="ped_pedestrian">
        <personTrip from="511852941#5" to="162562779#4" modes="public"/>
    </person>
    <person id="ped136" depart="357.13" type="ped_pedestrian">
        <personTrip from="445988114#2" to="738179054#4" modes="public"/>
    </person>
    <person id="ped137" depart="359.75" type="ped_pedestrian">
        <personTrip from="-393907860#1" to="-38903574#5" modes="public"/>
    </person>
    <person id="ped138" depart="362.38" type="ped_pedestrian">
        <personTrip from="-388006867#1" to="393613650#2" modes="public"/>
    </person>
    <person id="ped139" depart="365.00" type="ped_pedestrian">
        <personTrip from="149875906#1" to="394660927#1" modes="public"/>
    </person>
    <person id="ped140" depart="367.63" type="ped_pedestrian">
        <personTrip from="478939506#2" to="-552900623" modes="public"/>
    </person>
    <person id="ped141" depart="370.26" type="ped_pedestrian">
        <personTrip from="408845038#0" to="-93359250" modes="public"/>
    </person>
    <person id="ped142" depart="372.88" type="ped_pedestrian">
        <personTrip from="378064623" to="684134539" modes="public"/>
    </person>
    <person id="ped143" depart="375.51" type="ped_pedestrian">
        <personTrip from="552900628" to="-378064622#1" modes="public"/>
    </person>
    <person id="ped144" depart="378.13" type="ped_pedestrian">
        <personTrip from="363299636" to="150258991" modes="public"/>
    </person>
    <person id="ped145" depart="380.76" type="ped_pedestrian">
        <personTrip from="-150258989#4" to="482442762" modes="public"/>
    </person>
    <person id="ped146" depart="383.39" type="ped_pedestrian">
        <personTrip from="42299163#2" to="-93359247#0" modes="public"/>
    </person>
    <person id="ped147" depart="386.01" type="ped_pedestrian">
        <personTrip from="479037383#1" to="393596509" modes="public"/>
    </person>
    <person id="ped148" depart="388.64" type="ped_pedestrian">
        <personTrip from="364154082" to="-162561738#10" modes="public"/>
    </person>
    <person id="ped149" depart="391.26" type="ped_pedestrian">
        <personTrip from="-371435652" to="646044314#2" modes="public"/>
    </person>
    <person id="ped150" depart="393.89" type="ped_pedestrian">
        <personTrip from="684130272" to="393248506#0" modes="public"/>
    </person>
    <person id="ped151" depart="396.51" type="ped_pedestrian">
        <personTrip from="544408156#1" to="393764350#2" modes="public"/>
    </person>
    <person id="ped152" depart="399.14" type="ped_pedestrian">
        <personTrip from="-408845038#1" to="-393764343#10" modes="public"/>
    </person>
    <person id="ped153" depart="401.77" type="ped_pedestrian">
        <personTrip from="164439328" to="683164663#9" modes="public"/>
    </person>
    <person id="ped154" depart="404.39" type="ped_pedestrian">
        <personTrip from="511155571#0" to="575224400#1" modes="public"/>
    </person>
    <person id="ped155" depart="407.02" type="ped_pedestrian">
        <personTrip from="683164663#9" to="-582546059#2" modes="public"/>
    </person>
    <person id="ped156" depart="409.64" type="ped_pedestrian">
        <personTrip from="-93359151" to="-385152952#2" modes="public"/>
    </person>
    <person id="ped157" depart="412.27" type="ped_pedestrian">
        <personTrip from="482654639#4" to="646086360" modes="public"/>
    </person>
    <person id="ped158" depart="414.90" type="ped_pedestrian">
        <personTrip from="338332424#8" to="394682347#10" modes="public"/>
    </person>
    <person id="ped159" depart="417.52" type="ped_pedestrian">
        <personTrip from="-43661121#7" to="718314467" modes="public"/>
    </person>
    <person id="ped160" depart="420.15" type="ped_pedestrian">
        <personTrip from="575525391" to="84526820#1" modes="public"/>
    </person>
    <person id="ped161" depart="422.77" type="ped_pedestrian">
        <personTrip from="511852936" to="642213925#1" modes="public"/>
    </person>
    <person id="ped162" depart="425.40" type="ped_pedestrian">
        <personTrip from="-223581247#4" to="479037376#9" modes="public"/>
    </person>
    <person id="ped163" depart="428.03" type="ped_pedestrian">
        <personTrip from="218390409#0" to="73204671#1" modes="public"/>
    </person>
    <person id="ped164" depart="430.65" type="ped_pedestrian">
        <personTrip from="511316234#2" to="575224405#2" modes="public"/>
    </person>
    <person id="ped165" depart="433.28" type="ped_pedestrian">
        <personTrip from="511852936" to="-96260467" modes="public"/>
    </person>
    <person id="ped166" depart="435.90" type="ped_pedestrian">
        <personTrip from="486150198#4" to="-388211542" modes="public"/>
    </person>
    <person id="ped167" depart="438.53" type="ped_pedestrian">
        <personTrip from="618768030" to="575224397#0" modes="public"/>
    </person>
    <person id="ped168" depart="441.16" type="ped_pedestrian">
        <personTrip from="-684134538#1" to="511852941#4" modes="public"/>
    </person>
    <person id="ped169" depart="443.78" type="ped_pedestrian">
        <personTrip from="377213298" to="163993620#1" modes="public"/>
    </person>
    <person id="ped170" depart="446.41" type="ped_pedestrian">
        <personTrip from="511152537#1" to="-69353456#2" modes="public"/>
    </person>
    <person id="ped171" depart="449.03" type="ped_pedestrian">
        <personTrip from="-223581247#1" to="-519361918" modes="public"/>
    </person>
    <person id="ped172" depart="451.66" type="ped_pedestrian">
        <personTrip from="213851825#4" to="575224777" modes="public"/>
    </person>
    <person id="ped173" depart="454.29" type="ped_pedestrian">
        <personTrip from="772693129#1" to="152101003" modes="public"/>
    </person>
    <person id="ped174" depart="456.91" type="ped_pedestrian">
        <personTrip from="42312558" to="323877828#1" modes="public"/>
    </person>
    <person id="ped175" depart="459.54" type="ped_pedestrian">
        <personTrip from="93359162#4" to="38903574#0" modes="public"/>
    </person>
    <person id="ped176" depart="462.16" type="ped_pedestrian">
        <personTrip from="738179054#5" to="-38903574#5" modes="public"/>
    </person>
    <person id="ped177" depart="464.79" type="ped_pedestrian">
        <personTrip from="780648221" to="-468755769#2" modes="public"/>
    </person>
    <person id="ped178" depart="467.41" type="ped_pedestrian">
        <personTrip from="765046471#1" to="-96198634#1" modes="public"/>
    </person>
    <person id="ped179" depart="470.04" type="ped_pedestrian">
        <personTrip from="-388211542" to="364154097#0" modes="public"/>
    </person>
    <person id="ped180" depart="472.67" type="ped_pedestrian">
        <personTrip from="478939514#0" to="188215405" modes="public"/>
    </person>
    <person id="ped181" depart="475.29" type="ped_pedestrian">
        <personTrip from="394660927#4" to="384709893#5" modes="public"/>
    </person>
    <person id="ped182" depart="477.92" type="ped_pedestrian">
        <personTrip from="293867127#2" to="393764343#12" modes="public"/>
    </person>
    <person id="ped183" depart="480.54" type="ped_pedestrian">
        <personTrip from="-93359176#1" to="477115073#1" modes="public"/>
    </person>
    <person id="ped184" depart="483.17" type="ped_pedestrian">
        <personTrip from="-142890729" to="711292223" modes="public"/>
    </person>
    <person id="ped185" depart="485.80" type="ped_pedestrian">
        <personTrip from="38903574#5" to="478939508#0" modes="public"/>
    </person>
    <person id="ped186" depart="488.42" type="ped_pedestrian">
        <personTrip from="479037385#0" to="446729526#0" modes="public"/>
    </person>
    <person id="ped187" depart="491.05" type="ped_pedestrian">
        <personTrip from="25691683#2" to="-364154091" modes="public"/>
    </person>
    <person id="ped188" depart="493.67" type="ped_pedestrian">
        <personTrip from="445988114#4" to="213910574" modes="public"/>
    </person>
    <person id="ped189" depart="496.30" type="ped_pedestrian">
        <personTrip from="188215405" to="562326419#2" modes="public"/>
    </person>
    <person id="ped190" depart="498.93" type="ped_pedestrian">
        <personTrip from="478939508#0" to="162563099#0" modes="public"/>
    </person>
    <person id="ped191" depart="501.55" type="ped_pedestrian">
        <personTrip from="164439334#2" to="338624770#4" modes="public"/>
    </person>
    <person id="ped192" depart="504.18" type="ped_pedestrian">
        <personTrip from="338332424#0" to="162561738#8" modes="public"/>
    </person>
    <person id="ped193" depart="506.80" type="ped_pedestrian">
        <personTrip from="-393764343#10" to="360827911#3" modes="public"/>
    </person>
    <person id="ped194" depart="509.43" type="ped_pedestrian">
        <personTrip from="738179054#7" to="446729534#2" modes="public"/>
    </person>
    <person id="ped195" depart="512.06" type="ped_pedestrian">
        <personTrip from="683185824#1" to="394671358" modes="public"/>
    </person>
    <person id="ped196" depart="514.68" type="ped_pedestrian">
        <personTrip from="162563099#1" to="393248508" modes="public"/>
    </person>
    <person id="ped197" depart="517.31" type="ped_pedestrian">
        <personTrip from="-106888004#0" to="155296547#1" modes="public"/>
    </person>
    <person id="ped198" depart="519.93" type="ped_pedestrian">
        <personTrip from="364154087" to="393764343#8" modes="public"/>
    </person>
    <person id="ped199" depart="522.56" type="ped_pedestrian">
        <personTrip from="440710412#1" to="377283173" modes="public"/>
    </person>