<?xml version="1.0" encoding="UTF-8"?>

<!-- generated on 2023-06-07 09:00:43 by Eclipse SUMO polyconvert Version 1.12.0
<configuration xmlns:xsi="http://www.w3.org/2001/XMLSchema-instance" xsi:noNamespaceSchemaLocation="http://sumo.dlr.de/xsd/polyconvertConfiguration.xsd">

    <input>
        <net-file value="Modules/SumoMobility/SumoFiles/network.net.xml"/>
        <osm-files value="/home/yanncauchepin/Git/EpidemicDigitalization/Modules/OSM/belval.osm.xml"/>
        <osm.keep-full-type value="true"/>
        <shapefile.add-param value="true"/>
        <type-file value="/home/yanncauchepin/Git/EpidemicDigitalization/Modules/SumoMobility/SumoFiles/polygon.types.xml"/>
    </input>

    <output>
        <output-file value="/home/yanncauchepin/Git/EpidemicDigitalization/Modules/SumoMobility/SumoFiles/polygons.poly.xml"/>
    </output>

    <processing>
        <poi-layer-offset value="5"/>
    </processing>

    <report>
        <verbose value="true"/>
    </report>

</configuration>
-->

<additional xmlns:xsi="http://www.w3.org/2001/XMLSchema-instance" xsi:noNamespaceSchemaLocation="http://sumo.dlr.de/xsd/additional_file.xsd">
    <location netOffset="-712407.82,-5486663.70" convBoundary="-439.20,-3510.24,4824.03,1677.00" origBoundary="5.927538,49.462146,5.998025,49.510133" projParameter="+proj=utm +zone=31 +ellps=WGS84 +datum=WGS84 +units=m +no_defs"/>

    <poly id="106888004" type="highway.track" color="51,128,255" fill="0" layer="-1.00" shape="464.704063,927.481540 459.844923,923.629263 434.247993,850.248194 422.726990,817.225564 421.802633,802.094254 411.740951,774.583408"/>
    <poly id="108296913" type="building.yes" color="blue" fill="1" layer="1.00" shape="1052.704033,609.577350 1065.710065,649.773189 1043.116602,657.037141 1030.110431,616.841360 1052.704033,609.577350"/>
    <poly id="142890725" type="highway.unclassified" color="51,128,255" fill="0" layer="-1.00" shape="428.544189,800.632030 463.333205,910.050675 466.911421,916.257471 472.404685,920.579811"/>
    <poly id="142890729" type="highway.unclassified" color="51,128,255" fill="0" layer="-1.00" shape="380.188149,658.356259 419.370293,772.109413"/>
    <poly id="142891239" type="highway.unclassified" color="51,128,255" fill="0" layer="-1.00" shape="868.302431,988.591255 856.176951,992.580771"/>
    <poly id="149640699" type="highway.unclassified" color="51,128,255" fill="0" layer="-1.00" shape="1061.482517,595.549420 1070.524587,592.563883"/>
    <poly id="149875906" type="highway.pedestrian" color="51,128,255" fill="0" layer="-1.00" shape="954.580122,584.350366 955.630611,587.519644 967.149858,622.191067"/>
    <poly id="150252472" type="highway.trunk" color="51,128,255" fill="0" layer="-1.00" shape="729.074112,560.432355 759.573526,636.878778"/>
    <poly id="150254977" type="highway.trunk" color="51,128,255" fill="0" layer="-1.00" shape="967.968351,1258.464135 941.905208,1221.653506 925.627323,1187.096301 911.316371,1145.992471 744.932634,641.582860"/>
    <poly id="150256429" type="highway.residential" color="51,128,255" fill="0" layer="-1.00" shape="737.207259,702.307490 757.948266,695.860440"/>
    <poly id="155287360" type="highway.track" color="51,128,255" fill="0" layer="-1.00" shape="411.740951,774.583408 372.758036,660.737905"/>
    <poly id="155291168" type="highway.footway" color="51,128,255" fill="0" layer="-1.00" shape="285.258471,1319.385012 282.766468,1315.068659 280.478068,1308.878920 276.569521,1297.393836 305.800147,1278.597073 338.836751,1246.991203 367.741960,1216.304016 380.511848,1193.002060 383.837476,1182.467301 384.901564,1172.668016 384.184453,1158.357444 381.021412,1147.647246 374.119404,1136.891250"/>
    <poly id="155295647" type="highway.residential" color="51,128,255" fill="0" layer="-1.00" shape="548.719252,901.018576 545.078129,890.300729 527.384501,837.889295"/>
    <poly id="155391357" type="natural.water" color="51,128,255" fill="1" layer="-1.00" shape="638.379394,983.327558 633.777692,970.111868 645.642717,966.289799 644.569732,961.839503 649.748015,961.975146 650.294140,960.059493 652.598653,967.686085 655.819451,967.266523 660.973679,968.202755 665.745957,970.749360 669.478576,974.669111 671.781381,979.557124 672.441857,984.915273 671.379093,990.217178 668.701687,994.910476 664.681683,998.527121 659.724308,1000.715596 654.332218,1001.228383 649.050045,1000.042245 644.410405,997.255930 640.975875,993.314452 638.901212,988.524429 638.379394,983.327558"/>
    <poly id="155391359" type="building.yes" color="blue" fill="1" layer="1.00" shape="649.748015,961.975146 644.569732,961.839503 638.927738,961.696870 637.980513,959.778500 633.247005,957.723253 628.206027,953.518609 624.660004,947.791636 622.986942,940.701823 623.755652,933.462548 626.869711,926.871559 631.987880,921.683644 638.537422,918.455292 645.785618,917.569756 652.924610,919.106780 659.156101,922.901568 663.785897,928.537350 666.294993,935.381559 666.408917,942.666472 664.109167,949.567582 659.649700,955.337830 653.534783,959.317872 650.294140,960.059493 649.748015,961.975146"/>
    <poly id="160761503" type="power.line" color="51,128,255" fill="0" layer="-1.00" shape="634.265652,588.530517 654.357698,469.411064 785.470401,223.139090 935.002426,-59.023482 1199.989932,-243.550595 1408.694493,-388.527450 1674.555269,-573.210881 1934.984199,-755.023531 2190.364921,-932.681931 2445.801480,-1110.215949 2647.926066,-1250.655430 2855.403876,-1393.403896 2959.748266,-1499.751990 3174.081885,-1716.583807 3378.482482,-1924.127079 3611.020884,-2177.773785 3824.893784,-2411.868235 3928.125151,-2525.413748 4099.364875,-2712.896141 4275.477315,-2906.225426 4444.896239,-3092.212228 4647.550548,-3314.478840 4824.030178,-3510.238617"/>
    <poly id="161725912" type="power.cable" color="51,128,255" fill="0" layer="-1.00" shape="1311.798191,244.984625 998.788452,369.080408 740.431801,554.219433 1025.446538,1371.247236 976.574072,1676.995403"/>
    <poly id="162561738" type="highway.service" color="51,128,255" fill="0" layer="-1.00" shape="715.906425,845.625433 718.408502,854.317339 717.182649,860.080413 714.442609,864.704453 709.121968,867.836056 688.931214,875.061751 684.860905,877.552068 682.213131,881.856894 682.046442,890.199528 687.164475,905.784343 690.765641,916.589800 696.164610,932.775620 697.326480,936.249770 701.245353,948.013898 701.959032,950.156924 706.209242,962.902516 706.981110,965.225934 711.335811,978.265055 712.069023,980.464508 716.345091,993.289048 716.954674,995.127436 721.082049,1007.489746"/>
    <poly id="162562140" type="highway.footway" color="51,128,255" fill="0" layer="-1.00" shape="508.897065,796.879682 495.657751,758.112345 489.484415,751.893223 483.685674,749.818777 470.684925,750.969667 399.921347,774.266609 337.816164,794.373504 325.840647,796.566643"/>
    <poly id="162562779" type="highway.footway" color="51,128,255" fill="0" layer="-1.00" shape="508.897065,796.879682 513.465969,795.544196 517.894148,793.913779 532.313437,836.245060 542.702015,865.761614 550.414715,888.427533"/>
    <poly id="162562782" type="natural.scrub" color="51,128,255" fill="1" layer="-1.00" shape="664.228303,909.062164 670.032567,926.009654 671.328626,937.548758 670.337898,945.458415 662.628283,962.411906 672.260653,976.570168 674.342913,983.575811 672.754577,990.638319 669.976684,995.862034 665.738936,999.670545 660.203897,1002.727010 654.230259,1003.094606 646.656477,1001.740955 635.785566,995.527239 628.627850,994.100821 618.054907,962.272478 615.875238,958.313277 611.199898,946.052102 623.654556,926.033422 630.410003,919.762888 664.228303,909.062164"/>
    <poly id="162562785" type="highway.steps" color="51,128,255" fill="0" layer="-1.00" shape="810.106023,902.488480 802.707568,904.803979"/>
    <poly id="162563099" type="highway.pedestrian" color="51,128,255" fill="0" layer="-1.00" shape="937.537660,697.076171 945.293939,694.518798 929.640460,646.738810 927.426422,640.139796"/>
    <poly id="162563100" type="highway.pedestrian" color="51,128,255" fill="0" layer="-1.00" shape="948.987764,567.555564 935.157859,528.930874"/>
    <poly id="162563271" type="highway.unclassified" color="51,128,255" fill="0" layer="-1.00" shape="810.902649,813.929451 821.672746,810.309808 879.308815,790.523223"/>
    <poly id="163992121" type="building.office" color="blue" fill="1" layer="1.00" shape="910.625279,824.700246 896.469564,829.612137 893.051712,830.803107 886.995810,813.444736 890.082699,812.374395 888.889348,808.965759 885.861239,810.016137 883.899385,804.384378 901.413804,798.312565 910.625279,824.700246"/>
    <poly id="163992513" type="landuse.grass" color="51,128,255" fill="1" layer="-1.00" shape="876.272322,836.436151 873.320048,830.732241 870.000705,813.102486 877.588079,813.744502 880.424886,828.327413 884.910082,836.173045 876.272322,836.436151"/>
    <poly id="163993197" type="highway.steps" color="51,128,255" fill="0" layer="-1.00" shape="903.499031,874.516370 923.144840,868.071639"/>
    <poly id="163993394" type="barrier.retaining_wall" color="51,128,255" fill="0" layer="-1.00" shape="929.076267,856.748554 920.298356,859.666706 850.038059,883.411719"/>
    <poly id="163993519" type="building.office" color="blue" fill="1" layer="1.00" shape="720.006738,699.608803 711.429257,672.923482 672.487752,685.371857 671.841627,683.353934 671.065495,680.952434 654.575794,686.219002 649.568792,687.815558 653.706026,700.679118 659.561988,718.908796 720.006738,699.608803"/>
    <poly id="163993620" type="highway.residential" color="51,128,255" fill="0" layer="-1.00" shape="675.679313,724.091955 676.915955,727.880721 694.266833,780.134579 715.906425,845.625433"/>
    <poly id="164439325" type="highway.service" color="51,128,255" fill="0" layer="-1.00" shape="624.374806,1333.778367 638.285712,1331.194064 646.322882,1325.875397 649.922898,1320.015890 650.301754,1314.219691 635.261006,1268.379235 631.957168,1254.423877 630.511639,1242.444776 632.005294,1231.126058 634.972703,1212.150339 633.764691,1194.837067 622.128802,1163.879962 596.636744,1142.066301 592.082540,1134.129156"/>
    <poly id="164439327" type="highway.footway" color="51,128,255" fill="0" layer="-1.00" shape="622.214732,1126.445735 636.049392,1168.476273 641.560414,1176.784834 645.044153,1188.364936 646.749182,1196.858674 646.302368,1205.691307 645.870004,1215.637726 643.350653,1232.794146"/>
    <poly id="164439334" type="highway.footway" color="51,128,255" fill="0" layer="-1.00" shape="601.968636,1062.223090 603.380249,1066.541895 606.099814,1074.863754 610.586511,1088.609275"/>
    <poly id="165298202" type="building.yes" color="blue" fill="1" layer="1.00" shape="1077.907801,837.573356 1093.433312,832.492940 1084.568931,805.595270 1069.043356,810.675712 1077.907801,837.573356"/>
    <poly id="165298203" type="building.office" color="blue" fill="1" layer="1.00" shape="1111.909412,800.398845 1091.878565,806.850110 1111.225313,866.531061 1115.006884,865.309946 1117.186399,872.041295 1124.286524,869.759050 1122.145659,863.151667 1131.301858,860.204125 1111.909412,800.398845"/>
    <poly id="170650430" type="power.cable" color="51,128,255" fill="0" layer="-1.00" shape="1005.045120,1555.833705 1029.001493,1401.343389 725.196363,559.289958 654.357698,469.411064"/>
    <poly id="174128071" type="highway.secondary" color="51,128,255" fill="0" layer="-1.00" shape="654.971860,606.906483 618.649341,617.821209 545.936269,635.095637 525.989180,640.895443 479.725660,656.120477 455.473981,664.101286 417.341197,673.310172 383.450337,677.864700 358.348945,679.389499 331.305149,679.970288"/>
    <poly id="174128072" type="highway.secondary" color="51,128,255" fill="0" layer="-1.00" shape="878.060938,496.695028 873.694832,500.620841"/>
    <poly id="180910893" type="boundary.administrative" color="51,128,255" fill="0" layer="-1.00" shape="-439.204310,316.701720 -435.324477,321.528048 -230.426511,576.531441 -189.080826,547.160522 -150.653580,518.644730 -138.010503,507.136702 -122.505504,489.350346 -114.100669,499.729961 -107.897346,481.748349 -91.673895,462.832316 29.101860,583.757232 87.600403,543.112117 100.608113,559.270997 124.045348,582.026035 156.311779,611.693462 160.840322,615.855372 171.227806,616.650117 460.321745,638.920409 558.054463,607.182061"/>
    <poly id="192634656" type="building.yes" color="blue" fill="1" layer="1.00" shape="866.797020,439.168274 871.525813,453.769521 873.772579,460.648086 878.377881,474.142421 869.214969,480.585673 872.263383,485.135575 870.737284,485.966439 869.107659,486.848913 866.752180,488.493374 861.844104,490.149283 783.432460,516.615597 769.251939,521.404435 767.449230,516.146324 765.357320,517.355846 762.874088,517.447976 760.505851,516.453649 759.376587,514.183044 753.990043,516.209961 744.041798,483.782446 748.103402,482.449562 746.893234,478.539364 745.505975,480.455514 742.846901,482.633632 739.624778,483.821232 736.192309,483.898520 732.926807,482.857988 730.171849,480.813259 728.238140,477.976861 727.330258,474.679627 727.558234,471.259824 728.885141,468.105636 731.152285,465.567087 734.118010,463.890772 737.470003,463.275988 740.844121,463.764160 742.677976,464.704184 741.863163,462.735318 745.998479,461.371917 748.473791,460.555875 861.016768,424.013812 860.175892,425.862256 859.617711,429.380461 860.271122,432.879278 861.129924,434.649505 862.301044,436.220440 863.721502,437.533957 865.355970,438.566411 866.797020,439.168274"/>
    <poly id="194714675" type="highway.trunk_link" color="51,128,255" fill="0" layer="-1.00" shape="735.333944,558.506359 759.573526,636.878778"/>
    <poly id="194714676" type="highway.trunk_link" color="51,128,255" fill="0" layer="-1.00" shape="744.932634,641.582860 714.681770,566.192675"/>
    <poly id="194714677" type="highway.trunk" color="51,128,255" fill="0" layer="-1.00" shape="744.932634,641.582860 721.398979,563.694541"/>
    <poly id="194714679" type="highway.trunk" color="51,128,255" fill="0" layer="-1.00" shape="721.398979,563.694541 687.281057,449.958813 679.786150,416.892641 673.644212,382.042564 671.169741,358.167481"/>
    <poly id="194714681" type="highway.trunk" color="51,128,255" fill="0" layer="-1.00" shape="759.573526,636.878778 923.884029,1141.441529 932.916016,1167.577378 950.122192,1211.199198 976.442658,1252.361519"/>
    <poly id="194714693" type="highway.footway" color="51,128,255" fill="0" layer="-1.00" shape="881.343156,506.942649 869.107659,486.848913"/>
    <poly id="194714720" type="highway.service" color="51,128,255" fill="0" layer="-1.00" shape="618.649341,617.821209 632.707742,608.540960 693.177730,589.364040 743.348659,568.994609 749.518004,561.966543 767.449230,516.146324"/>
    <poly id="199317384" type="highway.trunk_link" color="51,128,255" fill="0" layer="-1.00" shape="694.312111,341.884067 688.509619,352.321864 684.381018,366.309479 684.944332,381.204106 691.587321,415.661897 700.395818,448.879637 735.333944,558.506359"/>
    <poly id="202630441" type="building.yes" color="blue" fill="1" layer="1.00" shape="1114.902874,483.758925 1149.303406,461.072067 1133.372219,437.059056 1098.978858,459.746299 1114.902874,483.758925"/>
    <poly id="202737163" type="railway.rail" color="51,128,255" fill="0" layer="-1.00" shape="1154.898574,396.913447 1101.441384,407.799494 1086.530701,412.147052 1069.363002,418.955540 1055.825558,425.082458 1040.241501,433.667416 959.007471,487.918170"/>
    <poly id="202737167" type="railway.rail" color="51,128,255" fill="0" layer="-1.00" shape="920.577877,524.285828 870.258358,551.015519"/>
    <poly id="202739091" type="railway.rail" color="51,128,255" fill="0" layer="-1.00" shape="997.654385,456.568765 959.007471,487.918170"/>
    <poly id="202739092" type="railway.rail" color="51,128,255" fill="0" layer="-1.00" shape="731.690814,640.731059 812.680951,585.922197"/>
    <poly id="202868843" type="railway.rail" color="51,128,255" fill="0" layer="-1.00" shape="1613.174299,292.755034 1502.561378,327.732556 1415.333681,344.960645 1377.479938,352.671176 1341.987087,359.717545 1305.697389,366.933278 1225.525914,382.871318 1183.353907,391.259969 1154.898574,396.913447 1126.175509,404.961147 1106.914878,412.444526 1078.300846,425.673233 1067.895627,431.800343 1043.343593,448.138349 965.445469,500.337716 936.958988,515.330995"/>
    <poly id="206177896" type="building.office" color="blue" fill="1" layer="1.00" shape="1147.167255,690.836112 1152.807881,688.986523 1179.366426,680.264224 1176.034489,670.192543 1143.835705,680.753337 1147.167255,690.836112"/>
    <poly id="208412892" type="highway.footway" color="51,128,255" fill="0" layer="-1.00" shape="1022.717320,1112.014808 1031.142831,1137.336703 1060.918851,1227.416351 1076.183663,1269.303899 1081.494410,1277.894550 1084.430316,1280.302817 1086.974973,1282.150276 1095.256582,1286.705000 1097.899282,1290.860686 1104.536842,1301.295643 1110.584083,1304.593960 1110.033797,1310.127401 1109.578211,1315.464172"/>
    <poly id="210939719" type="building.hangar" color="blue" fill="1" layer="1.00" shape="1171.810681,742.086177 1188.927631,736.367040 1190.453689,740.902017 1173.329512,746.620866 1171.810681,742.086177"/>
    <poly id="210939720" type="highway.service" color="51,128,255" fill="0" layer="-1.00" shape="980.795296,1023.263306 1003.586527,1089.034499 1006.401162,1097.505042"/>
    <poly id="213850285" type="building.office" color="blue" fill="1" layer="1.00" shape="699.439927,774.659425 719.510433,768.108107 717.157772,762.639254 743.394578,754.325350 744.731738,759.620914 763.874166,753.445348 747.575653,705.996973 732.509270,711.575012 739.382928,738.627903 711.490621,747.745408 699.351707,722.401425 683.179308,727.713704 699.439927,774.659425"/>
    <poly id="213850448" type="building.yes" color="blue" fill="1" layer="1.00" shape="906.035688,989.377846 948.456539,975.241760 957.689033,1002.743613 976.976821,1060.239833 934.563756,1074.375965 915.268360,1016.879622 906.035688,989.377846"/>
    <poly id="213851825" type="highway.track" color="51,128,255" fill="0" layer="-1.00" shape="336.211382,789.423848 337.816164,794.373504 338.273723,795.838545 348.467466,827.217247 356.656750,861.467748 360.918725,866.877378 369.510012,874.671331 370.264835,877.806673 360.871937,886.646262 281.532060,911.669227 232.517176,928.369551 228.083691,934.786800 229.741813,942.643992 246.902421,1000.599577 254.230071,1025.353966 261.677741,1031.611425 271.489813,1032.083392 317.659826,1017.298474 400.573689,990.389624 418.286117,984.969735"/>
    <poly id="213877650" type="highway.service" color="51,128,255" fill="0" layer="-1.00" shape="774.236009,656.833421 739.100397,669.285480 727.691303,673.481451"/>
    <poly id="213910574" type="highway.service" color="51,128,255" fill="0" layer="-1.00" shape="596.636744,1142.066301 605.778662,1130.745957 620.816773,1121.593111"/>
    <poly id="217840002" type="highway.path" color="51,128,255" fill="0" layer="-1.00" shape="1105.635425,701.454469 1130.985708,693.218960 1134.087198,692.149321 1139.102551,706.628511 1143.322981,722.891119 1147.814450,737.416588 1152.511092,751.515944 1161.523917,762.778723"/>
    <poly id="217840005" type="leisure.park" color="51,128,255" fill="1" layer="-1.00" shape="1137.580955,691.985634 1109.882800,700.930658 1130.715780,765.801849 1133.400498,769.447095 1136.898987,770.641731 1161.523917,762.778723 1139.286848,696.928401 1138.263706,693.804678 1137.580955,691.985634"/>
    <poly id="217859674" type="building.yes" color="blue" fill="1" layer="1.00" shape="638.901212,988.524429 640.975875,993.314452 636.595150,994.846426 631.101328,992.583342 617.200885,951.106902 621.788953,949.649809 619.627558,942.997329 620.644604,942.758778 620.306136,941.587800 622.986942,940.701823 624.660004,947.791636 628.206027,953.518609 633.247005,957.723253 637.980513,959.778500 638.927738,961.696870 644.569732,961.839503 645.642717,966.289799 633.777692,970.111868 638.379394,983.327558 638.901212,988.524429"/>
    <poly id="218390405" type="building.office" color="blue" fill="1" layer="1.00" shape="1118.504884,566.712859 1109.437133,539.072489 1095.203636,543.724835 1088.195322,522.365842 1125.628797,510.161782 1141.705077,559.150123 1118.504884,566.712859"/>
    <poly id="218390409" type="highway.pedestrian" color="51,128,255" fill="0" layer="-1.00" shape="890.924283,712.506723 917.853302,703.563911 927.220585,700.412766"/>
    <poly id="218390411" type="highway.pedestrian" color="51,128,255" fill="0" layer="-1.00" shape="1124.343404,790.032026 1114.622295,793.146704 1088.543370,801.487302 1087.588810,801.795010 1064.622815,809.144432"/>
    <poly id="223812322" type="highway.unclassified" color="51,128,255" fill="0" layer="-1.00" shape="1200.860548,1026.062277 1205.976700,1041.469500 1218.473000,1080.365692"/>
    <poly id="226056691" type="highway.service" color="51,128,255" fill="0" layer="-1.00" shape="1080.791996,513.682154 1081.821149,516.839492 1083.427554,521.733807 1086.873976,532.221788"/>
    <poly id="227335560" type="highway.unclassified" color="51,128,255" fill="0" layer="-1.00" shape="1070.524587,592.563883 1098.856106,583.008900 1102.965806,581.744956"/>
    <poly id="227337560" type="highway.unclassified" color="51,128,255" fill="0" layer="-1.00" shape="1001.467220,1099.092987 1006.401162,1097.505042 1011.358565,1095.873491"/>
    <poly id="227337561" type="highway.tertiary" color="51,128,255" fill="0" layer="-1.00" shape="1024.952141,1139.175975 1070.430010,1271.093438 1078.804600,1285.303451"/>
    <poly id="227338318" type="highway.service" color="51,128,255" fill="0" layer="-1.00" shape="955.024074,971.558061 958.223436,977.427554 964.147916,994.057296 967.648362,1003.901662 998.600602,1090.653808 1001.467220,1099.092987"/>
    <poly id="227338539" type="highway.steps" color="51,128,255" fill="0" layer="-1.00" shape="856.268698,1058.041866 863.547248,1055.821949"/>
    <poly id="227341950" type="highway.residential" color="51,128,255" fill="0" layer="-1.00" shape="856.176951,992.580771 845.835279,996.005577 784.297025,1016.452370 773.538806,1019.593838 688.830138,1046.927898 606.099814,1074.863754"/>
    <poly id="227346603" type="amenity.parking" color="51,128,255" fill="1" layer="-1.00" shape="786.304419,541.619545 787.241629,533.229121 841.351124,502.093883 840.672322,509.436852 786.304419,541.619545"/>
    <poly id="227350281" type="highway.pedestrian" color="51,128,255" fill="1" layer="-1.00" shape="962.970445,623.385587 961.984529,620.419214 951.443937,588.713890 950.361165,585.443159 958.657500,582.984860 987.879417,573.274920 1036.505247,557.222575 1049.114029,595.165216 967.149858,622.191067 962.970445,623.385587"/>
    <poly id="227463407" type="highway.service" color="51,128,255" fill="0" layer="-1.00" shape="957.737593,641.304016 956.502975,637.838089 954.151856,631.222564"/>
    <poly id="227463584" type="leisure.park" color="51,128,255" fill="1" layer="-1.00" shape="1122.384739,644.234029 1118.525837,645.574575 1094.323826,653.365315 1078.186264,604.274523 1077.292176,601.556632 1101.995841,592.995064 1104.583232,592.094516 1122.384739,644.234029"/>
    <poly id="227500391" type="highway.service" color="51,128,255" fill="0" layer="-1.00" shape="1063.227602,1167.737682 1085.302376,1234.728091 1093.885695,1243.981311 1106.212933,1249.451546"/>
    <poly id="227504331" type="railway.rail" color="51,128,255" fill="0" layer="-1.00" shape="959.007471,487.918170 933.825145,505.000082"/>
    <poly id="248092426" type="boundary.administrative" color="51,128,255" fill="0" layer="-1.00" shape="683.254776,566.299810 680.525716,558.400582 649.902878,469.860336 657.646491,447.041466 647.752057,437.704436 634.438285,425.139035 621.976750,389.095808 613.134915,372.486147 612.909921,359.319118 607.388057,353.860072 605.315073,334.175297 607.129424,314.464317"/>
    <poly id="248092428" type="place.suburb" color="51,128,255" fill="0" layer="-1.00" shape="806.098220,526.597180 845.223191,513.945330 848.198446,513.137761 875.794655,503.842292 888.404927,499.905116"/>
    <poly id="250528813" type="building.train_station" color="blue" fill="1" layer="1.00" shape="846.390530,528.028725 848.055436,530.876918 848.675942,531.880830 849.404013,533.100463 853.544282,539.763667 854.117155,540.687791 854.840594,541.840450 857.029581,545.377085 860.111291,543.516128 863.927957,541.216376 867.514555,539.052344 895.116298,522.387663 920.873926,505.606408 926.409200,502.004695 931.840521,498.465713 956.608567,482.336078 957.967973,480.207373 957.817398,477.941636 957.024187,476.719438 956.497213,475.919554 955.689958,474.685674 952.413738,469.659251 951.442308,468.174036 950.794872,467.302645 950.053639,466.049086 947.941866,464.430178 940.699319,463.857255 930.719715,465.414793 918.152954,468.607723 914.267613,470.437200 904.299899,474.655851 898.892004,478.707860 894.987666,483.987596 892.455022,489.788564 890.675458,494.873144 887.973582,500.366922 883.296246,505.761134 881.343156,506.942649 878.521754,508.635667 846.390530,528.028725"/>
    <poly id="259192793" type="highway.footway" color="51,128,255" fill="0" layer="-1.00" shape="532.313437,836.245060 579.657590,820.606369 604.613310,812.408751 611.412546,810.214279"/>
    <poly id="259193957" type="highway.path" color="51,128,255" fill="0" layer="-1.00" shape="374.119404,1136.891250 392.564439,1136.832222"/>
    <poly id="259195331" type="highway.track" color="51,128,255" fill="0" layer="-1.00" shape="392.564439,1136.832222 526.406392,1144.030628 572.912900,1148.274812 587.374045,1147.760178 596.636744,1142.066301"/>
    <poly id="259196938" type="highway.pedestrian" color="51,128,255" fill="0" layer="-1.00" shape="926.409200,502.004695 922.879429,492.526608 919.576206,483.558341"/>
    <poly id="259196943" type="highway.steps" color="51,128,255" fill="0" layer="-1.00" shape="919.576206,483.558341 917.009918,477.435371"/>
    <poly id="259196945" type="highway.pedestrian" color="51,128,255" fill="0" layer="-1.00" shape="861.619306,530.361189 886.180875,515.792822 881.343156,506.942649"/>
    <poly id="259196946" type="highway.pedestrian" color="51,128,255" fill="0" layer="-1.00" shape="922.879429,492.526608 888.837667,513.859591 887.593905,514.701498 886.180875,515.792822"/>
    <poly id="259197368" type="highway.pedestrian" color="51,128,255" fill="0" layer="-1.00" shape="872.454475,578.642564 863.927957,541.216376"/>
    <poly id="259201119" type="natural.scrub" color="51,128,255" fill="1" layer="-1.00" shape="328.242484,1057.831855 325.012466,1064.618838 327.434185,1072.038331 350.624658,1083.018249 358.695924,1092.795698 361.153218,1100.973586 383.992862,1133.558628 398.445200,1134.568256 418.407994,1133.700275 478.291292,1137.909461 527.107800,1139.994787 544.659376,1130.706175 546.659391,1124.049355 531.469279,1123.366737 525.772155,1123.155263 520.084142,1117.144282 500.196082,1115.910834 471.446594,1123.092323 389.667485,1120.421609 384.905018,1104.628349 365.390251,1097.732570 378.214204,1094.960418 380.094375,1091.182102 371.634726,1071.671077 375.206160,1064.496690 373.136267,1061.065091 338.588667,1060.963117 328.242484,1057.831855"/>
    <poly id="259201125" type="natural.scrub" color="51,128,255" fill="1" layer="-1.00" shape="413.889399,1159.372710 407.188448,1157.207421 417.862725,1152.303103 442.070891,1147.237198 495.235727,1148.056031 502.150101,1162.386112 521.196448,1157.697763 552.816420,1159.612393 560.458746,1162.916740 615.287452,1164.380651 619.728011,1168.918056 619.764223,1175.966154 613.817651,1179.540913 559.889867,1175.061994 509.305465,1173.330303 473.223933,1168.714627 416.726279,1173.977587 410.944277,1168.887023 404.861904,1172.044806 390.290826,1171.665051 396.336947,1166.279402 413.889399,1159.372710"/>
    <poly id="259226344" type="building.yes" color="blue" fill="1" layer="1.00" shape="536.013242,841.009470 553.242744,835.348466 555.518649,842.228028 588.978912,831.234523 586.658451,824.197353 604.549126,818.317434 612.465498,842.260482 619.935315,864.827965 552.259017,887.798271 544.399375,865.182268 536.013242,841.009470"/>
    <poly id="28242894" type="highway.unclassified" color="51,128,255" fill="0" layer="-1.00" shape="868.302431,988.591255 880.106975,984.466749"/>
    <poly id="288994597" type="landuse.grass" color="51,128,255" fill="1" layer="-1.00" shape="881.751153,848.717896 879.064087,843.647765 885.674561,840.166037 888.719617,845.906983 888.805242,852.055324 882.256450,855.628520 881.751153,848.717896"/>
    <poly id="293181548" type="boundary.administrative" color="51,128,255" fill="0" layer="-1.00" shape="1068.684349,1527.156235 1069.608488,1519.110413 1075.537329,1467.510848 926.153349,1450.494674 928.249500,1441.392635 911.746029,1435.948539 903.456284,1435.123070 882.378338,1433.017783 854.975206,1432.123347 848.580679,1449.183715 832.880841,1449.137049 730.457974,1448.758965 724.478312,1448.736588 696.416098,1446.347713 696.361981,1437.907376 725.314486,1437.737264 727.858920,1431.992371 726.084325,1403.413345 725.730911,1397.621901 685.451671,1401.768562 664.035699,1341.006430 653.658765,1344.240923 607.489596,1343.649351 593.550180,1424.670101 533.890588,1431.511311 537.204834,1475.624127 535.374524,1504.652158 513.600613,1510.903627 485.708929,1482.450895 473.032209,1460.136544 444.954121,1476.528333 456.966838,1489.120543 419.161669,1492.497448 377.467451,1510.261360 336.960168,1530.309479 328.728323,1535.431716 306.952362,1546.203563 296.897495,1568.687646 270.462983,1571.229221 147.310398,1583.333481 142.195381,1494.622287 96.341912,1498.989932 95.127755,1484.025520 41.577244,1486.312319 48.020664,1592.307641 35.633894,1592.826572 -2.026920,1586.582665 -32.421552,1580.822606 -60.004475,1579.547217 -92.079888,1578.597860 -125.133774,1579.692275 -133.902716,1579.450839 -165.852031,1579.731359 -165.715879,1597.637081 -198.197711,1597.262511 -199.853761,1572.406835 -257.317105,1571.894673 -253.842713,1515.612527 -272.538305,1514.884648 -280.709105,1630.919107 -339.106984,1625.940814 -120.664886,1049.822515 -87.485483,980.459640 -58.856637,943.247235 6.378910,890.908137 164.784739,837.983816 331.981332,784.494173 499.712386,730.596150 702.029999,667.067791 715.016951,661.642129"/>