<?xml version="1.0" encoding="UTF-8"?>
<!-- generated on 2021-03-22 13:06:23.796163 by $Id: ptlines2flows.py v1_3_1+0313-ccb31df3eb jakob.erdmann@dlr.de 2019-09-02 13:26:32 +0200 $ UNKNOWN
  options: 
-->
<routes xmlns:xsi="http://www.w3.org/2001/XMLSchema-instance" xsi:noNamespaceSchemaLocation="http://sumo.dlr.de/xsd/routes_file.xsd">
    <vType id="pt_bus" vClass="bus"/>
    <vType id="pt_tram" vClass="tram"/>
    <vType id="pt_train" vClass="rail"/>
    <vType id="pt_subway" vClass="rail_urban"/>
    <vType id="pt_light_rail" vClass="rail_urban"/>
    <vType id="pt_monorail" vClass="rail"/>
    <vType id="pt_trolleybus" vClass="bus"/>
    <vType id="pt_aerialway" vClass="bus"/>
    <vType id="pt_ferry" vClass="ship"/>
    <route id="pt_bus_1:0" edges="393878678 96202384 388006867#1 388006867#3 388211543 73204671#0 73204671#1 393248455 385079851 388040068 594713490 443202032 377213301#0 377213301#1 377213301#2 23019717" >
        <stop busStop="4464473490" duration="30.00" until="87.0"/> <!-- Esch, Tramschapp -->
    </route>
    <route id="pt_bus_2:0" edges="-150258989#6 -150258989#5 -150258989#4 -150258989#3 -150258989#2 -150258989#0 96202384 388006867#1 388006867#3 388211543 73204671#0 73204671#1 393248455 385079851 388040068 594713490 443202032 377213301#0 377213301#1 377213301#2 23019717" >
        <stop busStop="4464473490" duration="30.00" until="123.0"/> <!-- Esch, Tramschapp -->
    </route>
    <route id="pt_bus_202:1" edges="154986375 377213301#0 377213301#1 377213301#2 23019717" >
    </route>
    <route id="pt_bus_204:2" edges="154986375 377213301#0 377213301#1 377213301#2 23019717 393248497#0 170012501#0 170012501#1 26149300#1 26149299 377213301#2 23019717 393248497#0 393248497#1 393248497#2 251421193#0 393878673#0 393878673#1 440710544 84526771#0 84526771#1 96202364#0 96202364#1 -223581247#8 -223581247#7 -223581247#6 -223581247#5" >
        <stop busStop="8528731981" duration="30.00" until="74.0"/> <!-- Esch, Raemerich -->
        <stop busStop="1115018437" duration="30.00" until="162.0"/> <!-- Esch, Raemerich -->
    </route>
    <route id="pt_bus_204:0" edges="223581247#6 223581247#7 223581247#8 23019752#0 387488096#0 387488096#1 520948066 393248508 393248511#0 393248511#1 375371401 313843749#1 313843749#2 313843749#3 366838964 388280785 377213302 23888931 388280781 385079851 388040068 594713490 9232836#0" >
        <stop busStop="1115018462" duration="30.00" until="31.0"/> <!-- Belvaux, Brill -->
        <stop busStop="8528731984" duration="30.00" until="62.0"/> <!-- Belvaux, Brill -->
        <stop busStop="1115018384" duration="30.00" until="165.0"/> <!-- Esch, Raemerich -->
        <stop busStop="8528731982" duration="30.00" until="199.0"/> <!-- Esch, Raemerich -->
    </route>
    <route id="pt_bus_204:3" edges="223581247#6 223581247#7 223581247#8 23019752#0 387488096#0 387488096#1 520948066 393248508 393248511#0 393248511#1 375371401 313843749#1 313843749#2 313843749#3 366838964 388280785 377213302 23888931 388280781 385079851 388040068 594713490 9232836#0" >
        <stop busStop="1115018462" duration="30.00" until="31.0"/> <!-- Belvaux, Brill -->
        <stop busStop="8528731984" duration="30.00" until="62.0"/> <!-- Belvaux, Brill -->
        <stop busStop="1115018384" duration="30.00" until="169.0"/> <!-- Esch, Raemerich -->
    </route>
    <route id="pt_bus_3:0" edges="780648219 155293889#1 155293889#2 155293889#3 710630160#0 710630160#1 96260468#0 96260468#1 642213925#1 672774776#0 672774776#1 672774776#2 174128071#0 174128071#1 174128071#2 383805343 155297783 142890932 383805348 259204343 377211608 385104372#1 376948774 376948767 141242409" >
        <stop busStop="1631774736" duration="30.00" until="63.0"/> <!-- Belval Université -->
        <stop busStop="1676916972" duration="30.00" until="156.0"/> <!-- Belval -->
        <stop busStop="1676893045" duration="30.00" until="216.0"/> <!-- Belvaux, Belval Lycée -->
    </route>
    <route id="pt_bus_325:1" edges="154986375 377213301#0 377213301#1 377213301#2 23019717" >
    </route>
    <route id="pt_bus_204:1" edges="223581247#0 223581247#1 223581247#2 223581247#4 223581247#5 223581247#6 223581247#7 223581247#8 23019752#0 387488096#0 387488096#1 520948066 393248508 393248511#0 393248511#1 375371401 313843749#1 313843749#2 313843749#3 366838964 388280785 377213302 23888931 388280781 385079851 388040068 594713490 9232836#0" >
        <stop busStop="1115018462" duration="30.00" until="165.0"/> <!-- Belvaux, Brill -->
        <stop busStop="8528731984" duration="30.00" until="196.0"/> <!-- Belvaux, Brill -->
        <stop busStop="1115018384" duration="30.00" until="300.0"/> <!-- Esch, Raemerich -->
        <stop busStop="8528731982" duration="30.00" until="334.0"/> <!-- Esch, Raemerich -->
    </route>
    <route id="pt_bus_321:0" edges="393878678 96202384 388006867#1 388006867#3 388211543 73204671#0 73204671#1 393248455 385079851 388040068 594713490 9232836#0" >
        <stop busStop="4464473490" duration="30.00" until="88.0"/> <!-- Esch, Tramschapp -->
    </route>
    <route id="pt_train_TER_31:0" edges="150252469 336961970 336961969 24978795 24978806" >
        <stop busStop="3733227187" duration="30.00" until="162.0"/> <!-- Belval-Université -->
    </route>
    <route id="pt_bus_321:1" edges="154986375 377213301#0 377213301#1 377213301#2 393878675 388280785 377213302 23888931 23019727#0 23019727#1 23019727#2 -388211543 -388006867#3 -388006867#1 -388006867#0 -393878678" >
        <stop busStop="5146079337" duration="30.00" until="82.0"/> <!-- Esch, Tramschapp -->
    </route>
    <route id="pt_bus_202:0" edges="223581247#0 223581247#1 223581247#2 223581247#4 223581247#5 223581247#6 223581247#7 223581247#8 23019752#0 387488096#0 387488096#1 520948066 393248508 393248511#0 393248511#1 375371401 313843749#1 313843749#2 313843749#3 366838964 388280785 377213302 23888931 388280781 385079851 388040068 594713490 9232836#0" >
        <stop busStop="1115018462" duration="30.00" until="88.0"/> <!-- Belvaux, Brill -->
        <stop busStop="1115018384" duration="30.00" until="259.0"/> <!-- Esch, Raemerich -->
    </route>
    <route id="pt_bus_203:1" edges="25210189#0 25210189#1 25210189#2 25210189#3 152100999 393248463 594713490 443202032 377213301#0 377213301#1 377213301#2 23019717 393248497#0 393248497#1 393248497#2 251421193#0 393878673#0 393878673#1 440710544 84526823#0 84526823#1 84526823#2 387830973" >
        <stop busStop="5670312476" duration="30.00" until="67.0"/> <!-- Esch, Rue Henri Koch -->
        <stop busStop="1115018437" duration="30.00" until="192.0"/> <!-- Esch, Raemerich -->
    </route>
    <route id="pt_bus_203:0" edges="-387830973 84526820#0 84526820#1 476707103#0 476707103#1 520948066 393248508 393248511#0 393248511#1 375371401 313843749#1 313843749#2 313843749#3 366838964 388280785 377213302 23888931 388280781 385079851 152101003 594713491 -25210189#3 -25210189#2 -25210189#1 -25210189#0" >
        <stop busStop="1115018384" duration="30.00" until="182.0"/> <!-- Esch, Raemerich -->
        <stop busStop="-1649300091" duration="30.00" until="307.0"/> <!-- Esch, Rue Henri Koch -->
    </route>
    <route id="pt_bus_308:0" edges="25210189#0 25210189#1 25210189#2 25210189#3 152100999 393248463 594713490 443202032 377213301#0 377213301#1 377213301#2 23019717 393248497#0 393248497#1 393248497#2 251421193#0 393248506#0 393248506#1 393248506#2 393248506#3 393248506#4 194714712 809062693 809062692 393878671#0 393878671#1 467392235#1 425555627#0 425555627#1 69353459#0 69353439#1 69353439#6 69353439#7 663774150#0 663774150#1 663774150#2 338332423#0 360827911#1 360827911#2 360827911#3 408845038#0 408845038#1 408845038#2 155295647#0 155295647#1 393764274#1 370817780 378064622#1 360815375#1 360815375#2 360815375#3 360815375#4 360815375#5 360815375#6 360815375#7 360815375#8 360815375#9 360815375#10 516873295#0" >
        <stop busStop="8528041099" duration="30.00" until="65.0"/> <!-- Esch, Lycée Guillaume Kroll -->
        <stop busStop="8528041097" duration="30.00" until="96.0"/> <!-- Esch, Lycée Guillaume Kroll -->
        <stop busStop="4721178055" duration="30.00" until="516.0"/> <!-- Belvaux, Lycée Bel-Val -->
        <stop busStop="5045105611" duration="30.00" until="552.0"/> <!-- Belvaux, Lycée Bel-Val -->
    </route>
    <route id="pt_bus_325:0" edges="223581247#0 223581247#1 223581247#2 223581247#4 223581247#5 223581247#6 223581247#7 223581247#8 23019752#0 387488096#0 387488096#1 520948066 393248508 393248511#0 393248511#1 375371401 313843749#1 313843749#2 313843749#3 366838964 388280785 377213302 23888931 388280781 385079851 388040068 594713490 9232836#0" >
        <stop busStop="1115018462" duration="30.00" until="75.0"/> <!-- Belvaux, Brill -->
        <stop busStop="1115018384" duration="30.00" until="178.0"/> <!-- Esch, Raemerich -->
    </route>
    <route id="pt_bus_322:1" edges="780648219 155293889#1 155293889#2 155293889#3 710630160#0 710630160#1 96260468#0 96260468#1 642213925#1 672774776#0 672774776#1 672774776#2 174128071#0 174128071#1 174128071#2 383805343 155297783 142890932 383805348 259204343 377211608 385104372#1 376948774 376948767 141242409" >
        <stop busStop="1631774736" duration="30.00" until="61.0"/> <!-- Belval Université -->
        <stop busStop="1676916972" duration="30.00" until="156.0"/> <!-- Belval -->
        <stop busStop="1676893045" duration="30.00" until="216.0"/> <!-- Belvaux, Belval Lycée -->
    </route>
    <route id="pt_bus_322:0" edges="-141242409 -376948767 -376948774 -383805357 -385104372#0 142890930 142890934 377211609 383805340 259204346 -155297783 -383805343 -174128071#2 -174128071#1 -174128071#0 -672774776#2 -672774776#1 -672774776#0 -642213925#1 -642213925#0 -96260468#0 -96260467 155293889#1 155293889#2 155293889#3 710630160#0 710630160#1 -96260467 -780648219" >
        <stop busStop="-1677092127" duration="30.00" until="60.0"/> <!-- Belvaux, Belval Lycée -->
        <stop busStop="-1677096003" duration="30.00" until="128.0"/> <!-- Belval -->
        <stop busStop="1631774736" duration="30.00" until="262.0"/> <!-- Belval Université -->
    </route>
    <route id="pt_train_CFL-60:0" edges="-43153659 -43153658 -336961968 -336961967" >
        <stop busStop="-540592185" duration="30.00" until="110.0"/> <!-- Belval-Rédange -->
        <stop busStop="-540592226" duration="30.00" until="223.0"/> <!-- Belval-Lycée -->
        <stop busStop="-2126814069" duration="30.00" until="347.0"/> <!-- Belval-Université -->
    </route>
    <route id="pt_bus_1:1" edges="223581247#0 223581247#1 223581247#2 223581247#4 223581247#5 223581247#6 223581247#7 223581247#8 23019752#0 387488096#0 387488096#1 520948066 393248508 393248511#0 393248511#1 375371401 313843749#1 313843749#2 313843749#3 366838964 388280785 377213302 23888931 23019727#0 23019727#1 23019727#2 -388211543 -388006867#3 -388006867#1 -388006867#0 -393878678" >
        <stop busStop="1115018462" duration="30.00" until="73.0"/> <!-- Belvaux, Brill -->
        <stop busStop="1115018384" duration="30.00" until="178.0"/> <!-- Esch, Raemerich -->
        <stop busStop="5146079337" duration="30.00" until="240.0"/> <!-- Esch, Tramschapp -->
    </route>
    <route id="pt_bus_3:1" edges="-141242409 -376948767 -376948774 -383805357 -385104372#0 142890930 142890934 377211609 383805340 259204346 -155297783 -383805343 -174128071#2 -174128071#1 -174128071#0 -672774776#2 -672774776#1 -672774776#0 -642213925#1 -642213925#0 -96260468#0 -96260467 155293889#1 155293889#2 155293889#3 710630160#0 710630160#1 -96260467 155293889#1 155293889#2 155293889#3 710630160#0 710630160#1 -96260467 -780648219" >
        <stop busStop="-1677092127" duration="30.00" until="60.0"/> <!-- Belvaux, Belval Lycée -->
        <stop busStop="-1677096003" duration="30.00" until="129.0"/> <!-- Belval -->
        <stop busStop="6681188068" duration="30.00" until="238.0"/> <!-- Belval Université -->
        <stop busStop="1631774736" duration="30.00" until="302.0"/> <!-- Belval Université -->
    </route>
    <route id="pt_bus_4:0" edges="-393764279#1 -393764279#0 -393764283#1 -393764283#0 -43662057#1 -43662057#0 69353461#1 393764297#1 393764297#2 393764297#3 663774150#0 663774150#1 663774150#2 338332423#0 393764297#1 393764297#2 393764297#3 393596509 393596508#0 393596508#1 393596508#2 425555630#2 227337561 426538581#0 426538581#1 426538581#2 423133516 423133512 28246185 194714719 440710412#0 440710412#1 375371401 313843749#1 313843749#2 313843749#3 366838964 388280785 377213302 23888931 23019727#0 23019727#1 23019727#2 -388211543 -388006867#3 -388006867#1 -388006867#0 150258989#0 150258989#2 150258989#3 150258989#4 150258989#5 150258989#6" >
        <stop busStop="-3588272882" duration="30.00" until="31.0"/> <!-- Esch, Avenue du Rock’n’Roll -->
        <stop busStop="-4097218576" duration="30.00" until="62.0"/> <!-- Esch, Avenue du Rock’n’Roll -->
        <stop busStop="4408239878" duration="30.00" until="147.0"/> <!-- Esch/Alzette, Porte de France -->
        <stop busStop="1625279566" duration="30.00" until="278.0"/> <!-- Esch/Alzette, Porte de France -->
        <stop busStop="6212933652" duration="30.00" until="386.0"/> <!-- Esch/Alzette, Porte des Sciences -->
        <stop busStop="6212933653" duration="30.00" until="417.0"/> <!-- Esch/Alzette, Porte des Sciences -->
        <stop busStop="1115018384" duration="30.00" until="582.0"/> <!-- Esch, Raemerich -->
        <stop busStop="5146079337" duration="30.00" until="645.0"/> <!-- Esch, Tramschapp -->
        <stop busStop="1631828668" duration="30.00" until="737.0"/> <!-- Esch, Rue des Tramways -->
    </route>
    <route id="pt_train_CFL-60:1" edges="150252469 336961970 336961969 24978795 24978806" >
        <stop busStop="2125968286" duration="30.00" until="164.0"/> <!-- Belval-Université -->
        <stop busStop="271417454" duration="30.00" until="283.0"/> <!-- Belval-Lycée -->
        <stop busStop="271417570" duration="30.00" until="406.0"/> <!-- Belval-Rédange -->
    </route>
    <route id="pt_bus_306:0" edges="516873295#0 516873295#1 516873295#2 516873295#3 516873295#4 363299635#0 -378064619#2 -378064622#1 -378064622#0 -393764274#1 -393764274#0 -155295647#0 -408845038#2 -408845038#1 -408845038#0 -360827911#3 -360827911#2 360827911#2 360827911#3 408845038#0 -408845038#0 -360827911#3 -360827911#2 -360827911#1 393764297#1 393764297#2 393764297#3 663774150#0 663774150#1 663774150#2 338332423#0 393764297#1 393764297#2 393764297#3 393596509 393596508#0 393596508#1 393596508#2 425555630#2 227337561 426538581#0 426538581#1 426538581#2 366838967 364154088#0 364154088#1 364154088#2 188215405 385080086#0 377213300 393248447 23888931 388280781 385079851 388040068 594713490 9232836#0" >
        <stop busStop="5045105611" duration="30.00" until="31.0"/> <!-- Belvaux, Lycée Bel-Val -->
        <stop busStop="4721178055@6112896" duration="30.00" until="64.0"/> <!-- Belvaux, Lycée Bel-Val -->
        <stop busStop="4408239875" duration="30.00" until="218.0"/> <!-- Belvaux, Um Bedding -->
        <stop busStop="-2360364949" duration="30.00" until="271.0"/> <!-- Belvaux, Um Bedding -->
        <stop busStop="4408239878" duration="30.00" until="330.0"/> <!-- Esch/Alzette, Porte de France -->
        <stop busStop="1625279566" duration="30.00" until="477.0"/> <!-- Esch/Alzette, Porte de France -->
        <stop busStop="6212933652" duration="30.00" until="581.0"/> <!-- Esch/Alzette, Porte des Sciences -->
        <stop busStop="6212933653" duration="30.00" until="612.0"/> <!-- Esch/Alzette, Porte des Sciences -->
    </route>
    <route id="pt_bus_2:1" edges="223581247#0 223581247#1 223581247#2 223581247#4 223581247#5 223581247#6 223581247#7 223581247#8 23019752#0 387488096#0 387488096#1 520948066 393248508 393248511#0 393248511#1 375371401 313843749#1 313843749#2 313843749#3 366838964 388280785 377213302 23888931 23019727#0 23019727#1 23019727#2 -388211543 -388006867#3 -388006867#1 -388006867#0 150258989#0 150258989#2 150258989#3 150258989#4 150258989#5 150258989#6" >
        <stop busStop="1115018462" duration="30.00" until="104.0"/> <!-- Belvaux, Brill -->
        <stop busStop="1115018384" duration="30.00" until="242.0"/> <!-- Esch, Raemerich -->
        <stop busStop="5146079337" duration="30.00" until="306.0"/> <!-- Esch, Tramschapp -->
        <stop busStop="1631828668" duration="30.00" until="398.0"/> <!-- Esch, Rue des Tramways -->
    </route>
    <route id="pt_bus_306:1" edges="154986375 377213301#0 377213301#1 377213301#2 23019717 393248497#0 393248497#1 393248497#2 251421193#0 393248506#0 393248506#1 393248506#2 393248506#3 393248506#4 194714712 809062693 809062692 393878671#0 393878671#1 467392235#1 425555627#0 425555627#1 69353459#0 -227338318#2 -227338318#1 -227338318#0 713057043 393596508#0 393596508#1 393596508#2 -227338318#2 -227338318#1 -227338318#0 393835185 663774150#0 663774150#1 663774150#2 338332423#0 393764297#1 393764297#2 393764297#3 663774150#0 663774150#1 663774150#2 338332423#0 360827911#1 360827911#2 360827911#3 408845038#0 408845038#1 408845038#2 155295647#0 155295647#1 393764274#1 370817780 378064622#1 360815375#1 360815375#2 360815375#3 360815375#4 360815375#5 360815375#6 360815375#7 360815375#8 360815375#9 360815375#10 516873295#0 516873295#1 516873295#2 516873295#3 516873295#4 363299635#0 -378064619#2 360815375#1 360815375#2 360815375#3 360815375#4 360815375#5 360815375#6 360815375#7 360815375#8 360815375#9 360815375#10" >
        <stop busStop="-6212933651" duration="30.00" until="196.0"/> <!-- Esch/Alzette, Porte des Sciences -->
        <stop busStop="-6212933654" duration="30.00" until="311.0"/> <!-- Esch/Alzette, Porte des Sciences -->
        <stop busStop="4408239877" duration="30.00" until="396.0"/> <!-- Esch/Alzette, Porte de France -->
        <stop busStop="4107535818" duration="30.00" until="516.0"/> <!-- Esch/Alzette, Porte de France -->
        <stop busStop="4408239875" duration="30.00" until="577.0"/> <!-- Belvaux, Um Bedding -->
        <stop busStop="4107543803" duration="30.00" until="608.0"/> <!-- Belvaux, Um Bedding -->
        <stop busStop="5045105611" duration="30.00" until="745.0"/> <!-- Belvaux, Lycée Bel-Val -->
        <stop busStop="4721178055" duration="30.00" until="859.0"/> <!-- Belvaux, Lycée Bel-Val -->
    </route>
    <route id="pt_bus_332:0" edges="360827911#3 408845038#0 -408845038#0 -360827911#3 -360827911#2 -360827911#1 393764297#1 393764297#2 393764297#3 663774150#0 663774150#1 663774150#2 338332423#0 393764297#1 393764297#2 393764297#3 393764300#0 393764300#1 393764300#2 393764300#3 425555630#2 227337561 426538581#0 426538581#1 426538581#2 366838967 364154088#0 364154088#1 364154088#2 188215405 385080086#0 377213300 393248447 23888931 388280781 385079851 152101003 594713491 -25210189#3 -25210189#2 -25210189#1 -25210189#0" >
        <stop busStop="4408239875" duration="30.00" until="36.0"/> <!-- Belvaux, Um Bedding -->
        <stop busStop="-2360364949@8360118" duration="30.00" until="90.0"/> <!-- Belvaux, Um Bedding -->
        <stop busStop="4408239878" duration="30.00" until="155.0"/> <!-- Esch/Alzette, Porte de France -->
        <stop busStop="1625279566" duration="30.00" until="293.0"/> <!-- Esch/Alzette, Porte de France -->
        <stop busStop="4248491039" duration="30.00" until="406.0"/> <!-- Esch/Alzette, Cité des Sciences -->
        <stop busStop="3968040959" duration="30.00" until="437.0"/> <!-- Esch/Alzette, Cité des Sciences -->
        <stop busStop="-1649300091" duration="30.00" until="625.0"/> <!-- Esch, Rue Henri Koch -->
    </route>
    <route id="pt_bus_332:1" edges="25210189#0 25210189#1 25210189#2 25210189#3 152100999 393248463 594713490 443202032 377213301#0 377213301#1 377213301#2 23019717 393248497#0 393248497#1 393248497#2 251421193#0 393248506#0 393248506#1 393248506#2 393248506#3 393248506#4 194714712 809062693 809062692 393878671#0 393878671#1 467392235#1 425555627#0 425555627#1 69353459#0 69353439#1 69353439#6 69353439#7 663774150#0 663774150#1 663774150#2 338332423#0 393764297#1 393764297#2 393764297#3 663774150#0 663774150#1 663774150#2 338332423#0 360827911#1 360827911#2 360827911#3" >
        <stop busStop="5670312476" duration="30.00" until="68.0"/> <!-- Esch, Rue Henri Koch -->
        <stop busStop="4248491038" duration="30.00" until="265.0"/> <!-- Esch/Alzette, Cité des Sciences -->
        <stop busStop="3968109962" duration="30.00" until="296.0"/> <!-- Esch/Alzette, Cité des Sciences -->
        <stop busStop="4408239877" duration="30.00" until="481.0"/> <!-- Esch/Alzette, Porte de France -->
        <stop busStop="4107535818" duration="30.00" until="628.0"/> <!-- Esch/Alzette, Porte de France -->
        <stop busStop="4408239875" duration="30.00" until="679.0"/> <!-- Belvaux, Um Bedding -->
        <stop busStop="4107543803" duration="30.00" until="710.0"/> <!-- Belvaux, Um Bedding -->
    </route>
    <route id="pt_bus_7:1" edges="-393764279#1 -393764279#0 -393764283#1 -393764283#0 -43662057#1 -43662057#0 69353461#1 393764297#1 393764297#2 393764297#3 663774150#0 663774150#1 663774150#2 338332423#0 393764297#1 393764297#2 393764297#3 393596509 393596508#0 393596508#1 393596508#2 425555630#2 227337561 426538581#0 426538581#1 426538581#2 423133516 423133512 28246185 194714719 440710412#0 440710412#1 375371401 313843749#1 313843749#2 313843749#3 366838964 388280785 377213302 23888931 388280781 385079851 152101003 594713491 -25210189#3 -25210189#2 -25210189#1 -25210189#0" >
        <stop busStop="-3588272882" duration="30.00" until="31.0"/> <!-- Esch, Avenue du Rock’n’Roll -->
        <stop busStop="-4097218576" duration="30.00" until="62.0"/> <!-- Esch, Avenue du Rock’n’Roll -->
        <stop busStop="4408239878" duration="30.00" until="162.0"/> <!-- Esch/Alzette, Porte de France -->
        <stop busStop="1625279566" duration="30.00" until="287.0"/> <!-- Esch/Alzette, Porte de France -->
        <stop busStop="6212933652" duration="30.00" until="381.0"/> <!-- Esch/Alzette, Porte des Sciences -->
        <stop busStop="6212933653" duration="30.00" until="412.0"/> <!-- Esch/Alzette, Porte des Sciences -->
        <stop busStop="1115018384" duration="30.00" until="574.0"/> <!-- Esch, Raemerich -->
        <stop busStop="-1649300091" duration="30.00" until="698.0"/> <!-- Esch, Rue Henri Koch -->
    </route>
    <route id="pt_bus_309:0" edges="516873295#0 516873295#1 516873295#2 516873295#3 516873295#4 363299635#0 -378064619#2 -378064622#1 -378064622#0 -393764274#1 -393764274#0 -155295647#0 -408845038#2 -408845038#1 -408845038#0 -360827911#3 -360827911#2 360827911#2 360827911#3 408845038#0 -408845038#0 -360827911#3 -360827911#2 -360827911#1 393764297#1 393764297#2 393764297#3 663774150#0 663774150#1 663774150#2 338332423#0 393764297#1 393764297#2 393764297#3 393596509 393596508#0 393596508#1 393596508#2 425555630#2 227337561 426538581#0 426538581#1 426538581#2 366838967 364154088#0 364154088#1 364154088#2 188215405 385080086#0 377213300 393248447 23888931 388280781 385079851 388040068 594713490 9232836#0" >
        <stop busStop="5045105611" duration="30.00" until="31.0"/> <!-- Belvaux, Lycée Bel-Val -->
        <stop busStop="4721178055@6112896" duration="30.00" until="64.0"/> <!-- Belvaux, Lycée Bel-Val -->
        <stop busStop="4408239875" duration="30.00" until="220.0"/> <!-- Belvaux, Um Bedding -->
        <stop busStop="-2360364949" duration="30.00" until="273.0"/> <!-- Belvaux, Um Bedding -->
        <stop busStop="4408239878" duration="30.00" until="332.0"/> <!-- Esch/Alzette, Porte de France -->
        <stop busStop="1625279566" duration="30.00" until="446.0"/> <!-- Esch/Alzette, Porte de France -->
        <stop busStop="6212933652" duration="30.00" until="563.0"/> <!-- Esch/Alzette, Porte des Sciences -->
        <stop busStop="6212933653" duration="30.00" until="594.0"/> <!-- Esch/Alzette, Porte des Sciences -->
    </route>
    <route id="pt_bus_7:0" edges="25210189#0 25210189#1 25210189#2 25210189#3 152100999 393248463 594713490 443202032 377213301#0 377213301#1 377213301#2 23019717 393248497#0 393248497#1 393248497#2 251421193#0 393248506#0 393248506#1 393248506#2 393248506#3 393248506#4 194714712 809062693 809062692 393878671#0 393878671#1 467392235#1 425555627#0 425555627#1 69353459#0 -227338318#2 -227338318#1 -227338318#0 713057043 393596508#0 393596508#1 393596508#2 -227338318#2 -227338318#1 -227338318#0 393835185 663774150#0 663774150#1 663774150#2 338332423#0 393764293#1 43662057#0 43662057#1 393764283#0 393764283#1 393764283#2 393764279#1 711234499" >
        <stop busStop="5670312476" duration="30.00" until="90.0"/> <!-- Esch, Rue Henri Koch -->
        <stop busStop="1115018437" duration="30.00" until="214.0"/> <!-- Esch, Raemerich -->
        <stop busStop="-6212933651" duration="30.00" until="371.0"/> <!-- Esch/Alzette, Porte des Sciences -->
        <stop busStop="-6212933654" duration="30.00" until="567.0"/> <!-- Esch/Alzette, Porte des Sciences -->
        <stop busStop="6687644239" duration="30.00" until="750.0"/> <!-- Esch, Avenue du Rock’n’Roll -->
        <stop busStop="527829779" duration="30.00" until="781.0"/> <!-- Esch, Avenue du Rock’n’Roll -->
    </route>
    <route id="pt_bus_4:1" edges="-150258989#6 -150258989#5 -150258989#4 -150258989#3 -150258989#2 -150258989#0 96202384 388006867#1 388006867#3 388211543 73204671#0 73204671#1 393248455 385079851 388040068 594713490 443202032 377213301#0 377213301#1 377213301#2 23019717 393248497#0 393248497#1 393248497#2 251421193#0 393248506#0 393248506#1 393248506#2 393248506#3 393248506#4 194714712 809062693 809062692 393878671#0 393878671#1 467392235#1 425555627#0 425555627#1 69353459#0 -227338318#2 -227338318#1 -227338318#0 713057043 393596508#0 393596508#1 393596508#2 -227338318#2 -227338318#1 -227338318#0 393835185 663774150#0 663774150#1 663774150#2 338332423#0 393764293#1 43662057#0 43662057#1 393764283#0 393764283#1 393764283#2 393764279#1 711234499" >
        <stop busStop="4464473490" duration="30.00" until="97.0"/> <!-- Esch, Tramschapp -->
        <stop busStop="1115018437" duration="30.00" until="189.0"/> <!-- Esch, Raemerich -->
        <stop busStop="-6212933651" duration="30.00" until="344.0"/> <!-- Esch/Alzette, Porte des Sciences -->
        <stop busStop="-6212933654" duration="30.00" until="461.0"/> <!-- Esch/Alzette, Porte des Sciences -->
        <stop busStop="6687644239" duration="30.00" until="673.0"/> <!-- Esch, Avenue du Rock’n’Roll -->
        <stop busStop="527829779" duration="30.00" until="704.0"/> <!-- Esch, Avenue du Rock’n’Roll -->
    </route>
    <route id="pt_bus_209:1" edges="710630160#0 710630160#1 96260468#0 96260468#1 642213925#1 672774776#0 672774776#1 672774776#2 174128071#0 174128071#1 174128071#2 383805343 155297783 142890932 383805348 383805349 142890934 194714706 194714726 479132315 142890725 -393764290#1 -408845038#2 -408845038#1 -408845038#0 -360827911#3 -360827911#2 360827911#2 360827911#3 408845038#0 -408845038#0 -360827911#3 -360827911#2 -360827911#1 393764297#1 393764297#2 393764297#3 663774150#0 663774150#1 663774150#2 338332423#0 393764297#1 393764297#2 393764297#3 393596509 393596508#0 393596508#1 393596508#2 425555630#2 227337561 426538581#0 426538581#1 426538581#2 366838967 364154088#0 364154088#1 364154088#2 188215405 385080086#0 377213300 393248447 23888931 388280781 385079851 388040068 594713490 9232836#0" >
        <stop busStop="6681188068" duration="30.00" until="31.0"/> <!-- Belval Université -->
        <stop busStop="1631774736@9882620" duration="30.00" until="62.0"/> <!-- Belval Université -->
        <stop busStop="4408239875" duration="30.00" until="296.0"/> <!-- Belvaux, Um Bedding -->
        <stop busStop="-2360364949" duration="30.00" until="349.0"/> <!-- Belvaux, Um Bedding -->
        <stop busStop="4408239878" duration="30.00" until="442.0"/> <!-- Esch/Alzette, Porte de France -->
        <stop busStop="1625279566" duration="30.00" until="534.0"/> <!-- Esch/Alzette, Porte de France -->
        <stop busStop="6212933652" duration="30.00" until="656.0"/> <!-- Esch/Alzette, Porte des Sciences -->
        <stop busStop="6212933653" duration="30.00" until="687.0"/> <!-- Esch/Alzette, Porte des Sciences -->
    </route>
    <route id="pt_bus_309:1" edges="154986375 377213301#0 377213301#1 377213301#2 23019717 393248497#0 393248497#1 393248497#2 251421193#0 393248506#0 393248506#1 393248506#2 393248506#3 393248506#4 194714712 809062693 809062692 393878671#0 393878671#1 467392235#1 425555627#0 425555627#1 69353459#0 -227338318#2 -227338318#1 -227338318#0 713057043 393596508#0 393596508#1 393596508#2 -227338318#2 -227338318#1 -227338318#0 393835185 663774150#0 663774150#1 663774150#2 338332423#0 393764297#1 393764297#2 393764297#3 663774150#0 663774150#1 663774150#2 338332423#0 360827911#1 360827911#2 360827911#3 408845038#0 408845038#1 408845038#2 155295647#0 155295647#1 393764274#1 370817780 378064622#1 360815375#1 360815375#2 360815375#3 360815375#4 360815375#5 360815375#6 360815375#7 360815375#8 360815375#9 360815375#10 516873295#0 516873295#1 516873295#2 516873295#3 516873295#4 363299635#0 -378064619#2 360815375#1 360815375#2 360815375#3 360815375#4 360815375#5 360815375#6 360815375#7 360815375#8 360815375#9 360815375#10" >
        <stop busStop="-6212933651" duration="30.00" until="213.0"/> <!-- Esch/Alzette, Porte des Sciences -->
        <stop busStop="-6212933654" duration="30.00" until="363.0"/> <!-- Esch/Alzette, Porte des Sciences -->
        <stop busStop="4408239877" duration="30.00" until="454.0"/> <!-- Esch/Alzette, Porte de France -->
        <stop busStop="4107535818" duration="30.00" until="600.0"/> <!-- Esch/Alzette, Porte de France -->
        <stop busStop="4408239875" duration="30.00" until="685.0"/> <!-- Belvaux, Um Bedding -->
        <stop busStop="4107543803" duration="30.00" until="716.0"/> <!-- Belvaux, Um Bedding -->
        <stop busStop="5045105611" duration="30.00" until="855.0"/> <!-- Belvaux, Lycée Bel-Val -->
        <stop busStop="4721178055" duration="30.00" until="969.0"/> <!-- Belvaux, Lycée Bel-Val -->
    </route>