<routes xmlns:xsi="http://www.w3.org/2001/XMLSchema-instance" xsi:noNamespaceSchemaLocation="http://sumo.dlr.de/xsd/routes_file.xsd">
		<person id="1#0" depart="0" >
				<personTrip from="43662107" to="69357521" modes="public" />
		</person>
		<person id="1#1" depart="100" >
				<personTrip from="69357521" to="42299163" modes="public" />
		</person>
		<person id="1#2" depart="3877" >
				<personTrip from="42299163" to="106888004" modes="public" />
		</person>
		<person id="1#3" depart="6786" >
				<personTrip from="106888004" to="42299654" modes="public" />
		</person>
		<person id="1#4" depart="8308" >
				<personTrip from="42299654" to="93359226" modes="public" />
		</person>
		<person id="1#5" depart="11980" >
				<personTrip from="93359226" to="93359226" modes="public" />
		</person>
		<person id="1#6" depart="17498" >
				<personTrip from="93359226" to="162563271" modes="public" />
		</person>
		<person id="1#7" depart="21670" >
				<personTrip from="162563271" to="43662107" modes="public" />
		</person>
		<person id="1#8" depart="24151" >
				<personTrip from="43662107" to="42299654" modes="public" />
		</person>
		<person id="1#9" depart="26072" >
				<personTrip from="42299654" to="43662107" modes="public" />
		</person>
		<person id="1#10" depart="28012" >
				<personTrip from="43662107" to="393764343" modes="public" />
		</person>
		<person id="1#11" depart="31970" >
				<personTrip from="393764343" to="43662057" modes="public" />
		</person>
		<person id="1#12" depart="35182" >
				<personTrip from="43662057" to="353046118" modes="public" />
		</person>
		<person id="1#13" depart="40622" >
				<personTrip from="353046118" to="42299166" modes="public" />
		</person>
		<person id="1#14" depart="43283" >
				<personTrip from="42299166" to="106888004" modes="public" />
		</person>
		<person id="1#15" depart="46286" >
				<personTrip from="106888004" to="42299654" modes="public" />
		</person>
		<person id="1#16" depart="49948" >
				<personTrip from="42299654" to="210939720" modes="public" />
		</person>
		<person id="1#17" depart="51471" >
				<personTrip from="210939720" to="42299170" modes="public" />
		</person>
		<person id="1#18" depart="55677" >
				<personTrip from="42299170" to="42299163" modes="public" />
		</person>
		<person id="1#19" depart="59780" >
				<personTrip from="42299163" to="43662107" modes="public" />
		</person>
</routes>