<?xml version="1.0" encoding="UTF-8"?>

<!-- generated on 2024-03-02 14:14:04 by Eclipse SUMO duarouter Version 1.12.0
<configuration xmlns:xsi="http://www.w3.org/2001/XMLSchema-instance" xsi:noNamespaceSchemaLocation="http://sumo.dlr.de/xsd/duarouterConfiguration.xsd">

    <input>
        <net-file value="/home/yanncauchepin/Git/PublicProjects/EpidemicDigitalization/code/sumomobility/input_files/network.net.xml"/>
        <additional-files value="/home/yanncauchepin/Git/PublicProjects/EpidemicDigitalization/code/sumomobility/input_files/pt.stops.xml"/>
        <route-files value="/home/yanncauchepin/Git/PublicProjects/EpidemicDigitalization/code/sumomobility/input_files/0.individuals.trips.xml"/>
    </input>

    <output>
        <output-file value="/home/yanncauchepin/Git/PublicProjects/EpidemicDigitalization/code/sumomobility/input_files/0.individuals.temp.routes.xml"/>
        <alternatives-output value="/home/yanncauchepin/Git/PublicProjects/EpidemicDigitalization/code/sumomobility/input_files/0.individuals.temp.alt.routes.xml"/>
    </output>

    <processing>
        <repair value="true"/>
        <routing-threads value="40"/>
        <ptline-routing value="true"/>
    </processing>

    <report>
        <ignore-errors value="true"/>
    </report>

</configuration>
-->

<routes xmlns:xsi="http://www.w3.org/2001/XMLSchema-instance" xsi:noNamespaceSchemaLocation="http://sumo.dlr.de/xsd/routes_file.xsd"/>
